17514570


 30 34  0  0  0  0  0  0  0  0999 V2000
   60.9327  -20.7992   -6.8462 N   0  0  0  0  0  0  0  0  0  0  0  0
   61.1157  -20.1787   -5.6209 N   0  0  0  0  0  0  0  0  0  0  0  0
   61.4420  -21.1687   -4.8418 C   0  0  0  0  0  0  0  0  0  0  0  0
   62.0191  -21.0830   -3.4749 C   0  0  0  0  0  0  0  0  0  0  0  0
   62.7752  -22.7232   -3.1845 S   0  0  0  0  0  0  0  0  0  0  0  0
   62.2755  -23.4789   -4.7773 C   0  0  0  0  0  0  0  0  0  0  0  0
   61.3718  -22.5155   -5.4316 C   0  0  0  0  0  0  0  0  0  0  0  0
   61.1104  -22.1843   -6.7058 C   0  0  0  0  0  0  0  0  0  0  0  0
   58.5120  -17.4504  -10.9831 Cl  0  0  0  0  0  0  0  0  0  0  0  0
   58.9559  -18.5749   -9.7564 C   0  0  0  0  0  0  0  0  0  0  0  0
   59.3295  -19.8304  -10.0609 C   0  0  0  0  0  0  0  0  0  0  0  0
   59.8182  -20.7123   -9.0093 C   0  0  0  0  0  0  0  0  0  0  0  0
   60.0625  -20.2318   -7.7709 C   0  0  0  0  0  0  0  0  0  0  0  0
   59.4603  -18.9441   -7.4172 C   0  0  0  0  0  0  0  0  0  0  0  0
   59.0154  -18.1135   -8.3796 C   0  0  0  0  0  0  0  0  0  0  0  0
   61.2323  -23.0813   -7.7482 N   0  0  0  0  0  0  0  0  0  0  0  0
   60.2056  -23.9659   -7.9960 C   0  0  0  0  0  0  0  0  0  0  0  0
   59.5100  -24.0001   -8.9997 O   0  0  0  0  0  0  0  0  0  0  0  0
   61.4987  -22.5954   -8.5985 H   0  0  0  0  0  0  0  0  0  0  0  0
   60.0616  -24.9567   -6.9126 C   0  0  0  0  0  0  0  0  0  0  0  0
   58.8953  -25.6060   -6.8053 C   0  0  0  0  0  0  0  0  0  0  0  0
   58.6912  -26.9358   -7.3471 C   0  0  0  0  0  0  0  0  0  0  0  0
   58.1413  -27.8941   -6.5635 C   0  0  0  0  0  0  0  0  0  0  0  0
   58.1093  -29.2882   -6.9896 C   0  0  0  0  0  0  0  0  0  0  0  0
   58.5480  -29.6061   -8.2184 C   0  0  0  0  0  0  0  0  0  0  0  0
   59.0125  -30.8432   -8.5804 O   0  0  0  0  0  0  0  0  0  0  0  0
   59.8217  -30.5523   -9.7295 C   0  0  0  0  0  0  0  0  0  0  0  0
   59.8984  -29.1505  -10.0316 O   0  0  0  0  0  0  0  0  0  0  0  0
   59.0776  -28.5947   -9.0873 C   0  0  0  0  0  0  0  0  0  0  0  0
   59.1311  -27.3106   -8.6979 C   0  0  0  0  0  0  0  0  0  0  0  0
  9 10  1  0  0  0
 10 11  2  0  0  0
 11 12  1  0  0  0
 12 13  2  0  0  0
 13 14  1  0  0  0
 14 15  2  0  0  0
 13  1  1  0  0  0
  1  2  1  0  0  0
  2  3  2  0  0  0
  3  4  1  0  0  0
  4  5  1  0  0  0
  5  6  1  0  0  0
  6  7  1  0  0  0
  7  8  2  0  0  0
  8 16  1  0  0  0
 16 17  1  0  0  0
 17 18  2  0  0  0
 17 20  1  0  0  0
 20 21  2  0  0  0
 21 22  1  0  0  0
 22 23  2  0  0  0
 23 24  1  0  0  0
 24 25  2  0  0  0
 25 26  1  0  0  0
 26 27  1  0  0  0
 27 28  1  0  0  0
 28 29  1  0  0  0
 29 30  2  0  0  0
 15 10  1  0  0  0
  8  1  1  0  0  0
  7  3  1  0  0  0
 30 22  1  0  0  0
 29 25  1  0  0  0
 16 19  1  0  0  0
M  END
> <minimizedAffinity>
-5.51188

> <minimizedRMSD>
4.55938

> <CNNscore>
0.1429883838

> <CNNaffinity>
5.9654912949

> <CNN_VS>
0.8529959321

> <CNNaffinity_variance>
0.2448095083

$$$$
