17514570
     RDKit          3D

 45 49  0  0  0  0  0  0  0  0999 V2000
   55.3909  -18.1311  -10.5813 Cl  0  0  0  0  0  0  0  0  0  0  0  0
   56.3193  -18.9100   -9.3575 C   0  0  0  0  0  0  0  0  0  0  0  0
   56.7591  -20.1717   -9.5103 C   0  0  0  0  0  0  0  0  0  0  0  0
   57.6462  -20.7520   -8.5109 C   0  0  0  0  0  0  0  0  0  0  0  0
   58.1674  -19.9844   -7.5293 C   0  0  0  0  0  0  0  0  0  0  0  0
   57.5207  -18.6966   -7.2662 C   0  0  0  0  0  0  0  0  0  0  0  0
   56.7078  -18.1426   -8.1861 C   0  0  0  0  0  0  0  0  0  0  0  0
   59.3363  -20.2610   -6.8283 N   0  0  0  0  0  0  0  0  0  0  0  0
   59.5176  -19.7075   -5.5710 N   0  0  0  0  0  0  0  0  0  0  0  0
   60.3058  -20.5642   -4.9893 C   0  0  0  0  0  0  0  0  0  0  0  0
   61.0611  -20.3737   -3.7236 C   0  0  0  0  0  0  0  0  0  0  0  0
   62.3788  -21.6416   -3.7718 S   0  0  0  0  0  0  0  0  0  0  0  0
   61.8848  -22.4093   -5.3606 C   0  0  0  0  0  0  0  0  0  0  0  0
   60.5982  -21.7970   -5.7384 C   0  0  0  0  0  0  0  0  0  0  0  0
   60.0059  -21.4921   -6.9037 C   0  0  0  0  0  0  0  0  0  0  0  0
   60.2348  -22.2044   -8.0640 N   0  0  0  0  0  0  0  0  0  0  0  0
   60.3679  -23.5740   -7.9956 C   0  0  0  0  0  0  0  0  0  0  0  0
   59.6152  -24.3971   -8.4939 O   0  0  0  0  0  0  0  0  0  0  0  0
   61.5991  -23.9709   -7.2866 C   0  0  0  0  0  0  0  0  0  0  0  0
   61.9104  -23.3234   -6.1565 C   0  0  0  0  0  0  0  0  0  0  0  0
   61.6000  -23.8550   -4.8432 C   0  0  0  0  0  0  0  0  0  0  0  0
   61.2432  -23.0048   -3.8509 C   0  0  0  0  0  0  0  0  0  0  0  0
   61.1266  -23.4640   -2.4719 C   0  0  0  0  0  0  0  0  0  0  0  0
   61.2846  -24.7701   -2.2026 C   0  0  0  0  0  0  0  0  0  0  0  0
   61.6654  -25.2707   -0.9853 O   0  0  0  0  0  0  0  0  0  0  0  0
   62.1984  -26.5588   -1.3270 C   0  0  0  0  0  0  0  0  0  0  0  0
   62.1974  -26.8189   -2.7392 O   0  0  0  0  0  0  0  0  0  0  0  0
   61.6023  -25.6970   -3.2506 C   0  0  0  0  0  0  0  0  0  0  0  0
   61.7325  -25.2824   -4.5212 C   0  0  0  0  0  0  0  0  0  0  0  0
   56.4833  -20.7815  -10.3632 H   0  0  0  0  0  0  0  0  0  0  0  0
   57.9182  -21.7987   -8.6076 H   0  0  0  0  0  0  0  0  0  0  0  0
   57.5766  -18.3068   -6.2552 H   0  0  0  0  0  0  0  0  0  0  0  0
   56.2712  -17.1649   -8.0242 H   0  0  0  0  0  0  0  0  0  0  0  0
   60.4052  -20.5364   -2.8653 H   0  0  0  0  0  0  0  0  0  0  0  0
   61.4991  -19.3726   -3.6869 H   0  0  0  0  0  0  0  0  0  0  0  0
   61.7810  -23.4888   -5.2177 H   0  0  0  0  0  0  0  0  0  0  0  0
   62.6643  -22.2175   -6.1057 H   0  0  0  0  0  0  0  0  0  0  0  0
   59.5559  -21.9460   -8.7728 H   0  0  0  0  0  0  0  0  0  0  0  0
   62.0556  -24.9115   -7.5736 H   0  0  0  0  0  0  0  0  0  0  0  0
   62.5043  -22.4129   -6.1911 H   0  0  0  0  0  0  0  0  0  0  0  0
   60.9314  -21.9817   -4.0564 H   0  0  0  0  0  0  0  0  0  0  0  0
   60.8773  -22.7502   -1.6952 H   0  0  0  0  0  0  0  0  0  0  0  0
   63.2274  -26.6219   -0.9591 H   0  0  0  0  0  0  0  0  0  0  0  0
   61.6022  -27.3313   -0.8262 H   0  0  0  0  0  0  0  0  0  0  0  0
   61.8737  -25.9949   -5.3282 H   0  0  0  0  0  0  0  0  0  0  0  0
  1  2  1  0
  2  3  2  0
  3  4  1  0
  4  5  2  0
  5  6  1  0
  6  7  2  0
  5  8  1  0
  8  9  1  0
  9 10  2  0
 10 11  1  0
 11 12  1  0
 12 13  1  0
 13 14  1  0
 14 15  2  0
 15 16  1  0
 16 17  1  0
 17 18  2  0
 17 19  1  0
 19 20  2  0
 20 21  1  0
 21 22  2  0
 22 23  1  0
 23 24  2  0
 24 25  1  0
 25 26  1  0
 26 27  1  0
 27 28  1  0
 28 29  2  0
  7  2  1  0
 15  8  1  0
 14 10  1  0
 29 21  1  0
 28 24  1  0
  3 30  1  0
  4 31  1  0
  6 32  1  0
  7 33  1  0
 11 34  1  0
 11 35  1  0
 13 36  1  0
 13 37  1  0
 16 38  1  0
 19 39  1  0
 20 40  1  0
 22 41  1  0
 23 42  1  0
 26 43  1  0
 26 44  1  0
 29 45  1  0
M  END
$$$$
