17514570
     RDKit          3D

 45 49  0  0  0  0  0  0  0  0999 V2000
   53.9236  -16.0954   -8.3626 Cl  0  0  0  0  0  0  0  0  0  0  0  0
   54.7924  -17.4774   -7.8135 C   0  0  0  0  0  0  0  0  0  0  0  0
   55.7411  -17.3757   -6.8657 C   0  0  0  0  0  0  0  0  0  0  0  0
   56.3647  -18.5817   -6.3374 C   0  0  0  0  0  0  0  0  0  0  0  0
   55.8817  -19.8008   -6.6613 C   0  0  0  0  0  0  0  0  0  0  0  0
   55.0066  -19.8891   -7.8328 C   0  0  0  0  0  0  0  0  0  0  0  0
   54.4139  -18.7842   -8.3245 C   0  0  0  0  0  0  0  0  0  0  0  0
   56.0497  -20.9576   -5.9078 N   0  0  0  0  0  0  0  0  0  0  0  0
   55.7485  -22.1847   -6.4766 N   0  0  0  0  0  0  0  0  0  0  0  0
   56.5248  -23.0025   -5.8270 C   0  0  0  0  0  0  0  0  0  0  0  0
   56.4522  -24.4868   -5.8103 C   0  0  0  0  0  0  0  0  0  0  0  0
   57.3779  -24.9820   -4.3123 S   0  0  0  0  0  0  0  0  0  0  0  0
   57.8790  -23.2960   -3.7983 C   0  0  0  0  0  0  0  0  0  0  0  0
   57.4831  -22.3907   -4.8922 C   0  0  0  0  0  0  0  0  0  0  0  0
   57.0698  -21.1153   -4.9568 C   0  0  0  0  0  0  0  0  0  0  0  0
   57.4575  -20.1596   -4.0390 N   0  0  0  0  0  0  0  0  0  0  0  0
   58.7995  -19.8993   -3.8673 C   0  0  0  0  0  0  0  0  0  0  0  0
   59.4741  -19.1254   -4.5293 O   0  0  0  0  0  0  0  0  0  0  0  0
   59.3563  -20.6282   -2.7120 C   0  0  0  0  0  0  0  0  0  0  0  0
   59.2756  -21.9649   -2.7135 C   0  0  0  0  0  0  0  0  0  0  0  0
   60.3800  -22.8116   -3.1222 C   0  0  0  0  0  0  0  0  0  0  0  0
   60.2713  -23.5412   -4.2583 C   0  0  0  0  0  0  0  0  0  0  0  0
   61.2600  -24.5579   -4.5975 C   0  0  0  0  0  0  0  0  0  0  0  0
   62.3423  -24.7032   -3.8159 C   0  0  0  0  0  0  0  0  0  0  0  0
   63.0779  -25.8549   -3.7157 O   0  0  0  0  0  0  0  0  0  0  0  0
   63.7274  -25.7044   -2.4447 C   0  0  0  0  0  0  0  0  0  0  0  0
   63.3497  -24.5054   -1.7508 O   0  0  0  0  0  0  0  0  0  0  0  0
   62.5062  -23.8965   -2.6409 C   0  0  0  0  0  0  0  0  0  0  0  0
   61.5920  -22.9712   -2.3072 C   0  0  0  0  0  0  0  0  0  0  0  0
   56.0602  -16.4196   -6.4665 H   0  0  0  0  0  0  0  0  0  0  0  0
   57.1883  -18.4732   -5.6383 H   0  0  0  0  0  0  0  0  0  0  0  0
   55.0013  -20.8242   -8.3830 H   0  0  0  0  0  0  0  0  0  0  0  0
   53.7210  -18.8485   -9.1542 H   0  0  0  0  0  0  0  0  0  0  0  0
   56.9255  -24.8972   -6.7053 H   0  0  0  0  0  0  0  0  0  0  0  0
   55.4126  -24.8179   -5.7405 H   0  0  0  0  0  0  0  0  0  0  0  0
   58.9618  -23.2777   -3.6436 H   0  0  0  0  0  0  0  0  0  0  0  0
   57.3761  -23.0468   -2.8579 H   0  0  0  0  0  0  0  0  0  0  0  0
   56.9429  -19.2983   -4.1922 H   0  0  0  0  0  0  0  0  0  0  0  0
   60.0093  -20.0765   -2.0451 H   0  0  0  0  0  0  0  0  0  0  0  0
   58.3986  -22.4626   -2.3060 H   0  0  0  0  0  0  0  0  0  0  0  0
   59.5086  -23.3284   -5.0061 H   0  0  0  0  0  0  0  0  0  0  0  0
   61.1232  -25.1515   -5.4940 H   0  0  0  0  0  0  0  0  0  0  0  0
   63.4771  -26.5663   -1.8182 H   0  0  0  0  0  0  0  0  0  0  0  0
   64.8128  -25.6929   -2.6026 H   0  0  0  0  0  0  0  0  0  0  0  0
   61.7628  -22.2933   -1.4765 H   0  0  0  0  0  0  0  0  0  0  0  0
  1  2  1  0
  2  3  2  0
  3  4  1  0
  4  5  2  0
  5  6  1  0
  6  7  2  0
  5  8  1  0
  8  9  1  0
  9 10  2  0
 10 11  1  0
 11 12  1  0
 12 13  1  0
 13 14  1  0
 14 15  2  0
 15 16  1  0
 16 17  1  0
 17 18  2  0
 17 19  1  0
 19 20  2  0
 20 21  1  0
 21 22  2  0
 22 23  1  0
 23 24  2  0
 24 25  1  0
 25 26  1  0
 26 27  1  0
 27 28  1  0
 28 29  2  0
  7  2  1  0
 15  8  1  0
 14 10  1  0
 29 21  1  0
 28 24  1  0
  3 30  1  0
  4 31  1  0
  6 32  1  0
  7 33  1  0
 11 34  1  0
 11 35  1  0
 13 36  1  0
 13 37  1  0
 16 38  1  0
 19 39  1  0
 20 40  1  0
 22 41  1  0
 23 42  1  0
 26 43  1  0
 26 44  1  0
 29 45  1  0
M  END
$$$$
