849934


 33 37  0  0  0  0  0  0  0  0999 V2000
  -34.8308  -15.0723    4.4664 C   0  0  0  0  0  0  0  0  0  0  0  0
  -31.4712  -16.1705    8.7664 C   0  0  0  0  0  0  0  0  0  0  0  0
  -32.7995  -15.7110    8.8847 C   0  0  0  0  0  0  0  0  0  0  0  0
  -33.1903  -15.6139    7.5752 C   0  0  0  0  0  0  0  0  0  0  0  0
  -34.2494  -15.2555    6.9038 O   0  0  0  0  0  0  0  0  0  0  0  0
  -33.9156  -15.4031    5.6200 C   0  0  0  0  0  0  0  0  0  0  0  0
  -32.5904  -15.8662    5.4827 C   0  0  0  0  0  0  0  0  0  0  0  0
  -32.2040  -15.9778    6.7895 C   0  0  0  0  0  0  0  0  0  0  0  0
  -31.1042  -16.3342    7.4604 N   0  0  0  0  0  0  0  0  0  0  0  0
  -30.2402  -16.6402    7.1011 H   0  0  0  0  0  0  0  0  0  0  0  0
  -30.5762  -16.4349    9.8999 C   0  0  0  0  0  0  0  0  0  0  0  0
  -30.9046  -17.2851   10.7719 O   0  0  0  0  0  0  0  0  0  0  0  0
  -29.3699  -15.7326   10.0068 O   0  0  0  0  0  0  0  0  0  0  0  0
  -27.7392  -16.0643   11.7783 C   0  0  0  0  0  0  0  0  0  0  0  0
  -28.1259  -16.3506   10.3314 C   0  0  0  0  0  0  0  0  0  0  0  0
  -36.0041  -14.2634    4.9101 N   0  0  0  0  0  0  0  0  0  0  0  0
  -37.3146  -14.9461    4.7545 C   0  0  0  0  0  0  0  0  0  0  0  0
  -38.4915  -13.9610    4.9093 C   0  0  0  0  0  0  0  0  0  0  0  0
  -38.0888  -12.8078    5.6177 O   0  0  0  0  0  0  0  0  0  0  0  0
  -37.1693  -12.0623    4.8383 C   0  0  0  0  0  0  0  0  0  0  0  0
  -36.0274  -12.9333    4.2634 C   0  0  0  0  0  0  0  0  0  0  0  0
  -35.8705  -14.1412    5.9139 H   0  0  0  0  0  0  0  0  0  0  0  0
  -35.2031  -16.3347    3.7010 C   0  0  0  0  0  0  0  0  0  0  0  0
  -35.1512  -17.5790    4.2165 N   0  0  0  0  0  0  0  0  0  0  0  0
  -35.4986  -18.3868    3.2258 N   0  0  0  0  0  0  0  0  0  0  0  0
  -35.7496  -17.6801    2.1358 N   0  0  0  0  0  0  0  0  0  0  0  0
  -35.5804  -16.3966    2.4039 N   0  0  0  0  0  0  0  0  0  0  0  0
  -35.6941  -15.3025    1.4251 C   0  0  0  0  0  0  0  0  0  0  0  0
  -34.3530  -14.5561    1.2784 C   0  0  0  0  0  0  0  0  0  0  0  0
  -33.3299  -15.3640    0.4740 C   0  0  0  0  0  0  0  0  0  0  0  0
  -33.8821  -15.7086   -0.9113 C   0  0  0  0  0  0  0  0  0  0  0  0
  -35.1775  -16.5167   -0.7973 C   0  0  0  0  0  0  0  0  0  0  0  0
  -36.2300  -15.7870    0.0560 C   0  0  0  0  0  0  0  0  0  0  0  0
 14 15  1  0  0  0
 15 13  1  0  0  0
 13 11  1  0  0  0
 11 12  2  0  0  0
 11  2  1  0  0  0
  2  3  2  0  0  0
  3  4  1  0  0  0
  4  5  1  0  0  0
  5  6  1  0  0  0
  6  7  2  0  0  0
  7  8  1  0  0  0
  8  9  1  0  0  0
  1  6  1  0  0  0
  1 16  1  0  0  0
 16 17  1  0  0  0
 17 18  1  0  0  0
 18 19  1  0  0  0
 19 20  1  0  0  0
 20 21  1  0  0  0
  1 23  1  0  0  0
 23 24  2  0  0  0
 24 25  1  0  0  0
 25 26  2  0  0  0
 26 27  1  0  0  0
 27 28  1  0  0  0
 28 29  1  0  0  0
 29 30  1  0  0  0
 30 31  1  0  0  0
 31 32  1  0  0  0
 32 33  1  0  0  0
  9  2  1  0  0  0
  8  4  2  0  0  0
 21 16  1  0  0  0
 27 23  1  0  0  0
 33 28  1  0  0  0
  9 10  1  0  0  0
 16 22  1  0  0  0
M  CHG 1  16   1
M  END
> <minimizedAffinity>
-6.32405

> <newdefault_CNNaffinity>
6.38933

> <newdefault_CNNscore>
0.52949

> <CNNaffinity_times_score>
3.3830862

> <protein>
2xwe

$$$$
4237506


 21 23  0  0  0  0  0  0  0  0999 V2000
    7.1403   -3.6666   45.1874 C   0  0  0  0  0  0  0  0  0  0  0  0
    7.7433   -4.4422   46.1273 N   0  0  0  0  0  0  0  0  0  0  0  0
    7.3981   -5.7424   46.3062 C   0  0  0  0  0  0  0  0  0  0  0  0
    6.4279   -6.3011   45.5407 N   0  0  0  0  0  0  0  0  0  0  0  0
    5.7732   -5.5736   44.5995 C   0  0  0  0  0  0  0  0  0  0  0  0
    4.7634   -6.1698   43.8399 C   0  0  0  0  0  0  0  0  0  0  0  0
    4.0583   -5.4206   42.8964 C   0  0  0  0  0  0  0  0  0  0  0  0
    4.3436   -4.0570   42.7081 C   0  0  0  0  0  0  0  0  0  0  0  0
    5.3634   -3.4580   43.4712 C   0  0  0  0  0  0  0  0  0  0  0  0
    6.1004   -4.2140   44.4027 C   0  0  0  0  0  0  0  0  0  0  0  0
    3.5747   -3.2587   41.7193 C   0  0  0  0  0  0  0  0  0  0  0  0
    4.2188   -2.6905   40.6062 C   0  0  0  0  0  0  0  0  0  0  0  0
    3.4951   -1.9381   39.6788 C   0  0  0  0  0  0  0  0  0  0  0  0
    2.1227   -1.7440   39.8476 C   0  0  0  0  0  0  0  0  0  0  0  0
    1.4595   -2.3063   40.9540 C   0  0  0  0  0  0  0  0  0  0  0  0
    2.1911   -3.0589   41.8813 C   0  0  0  0  0  0  0  0  0  0  0  0
    0.0824   -2.1440   41.1671 O   0  0  0  0  0  0  0  0  0  0  0  0
   -0.9060   -2.2408   40.1467 C   0  0  0  0  0  0  0  0  0  0  0  0
    6.8120   -1.1822   45.5483 C   0  0  0  0  0  0  0  0  0  0  0  0
    7.5813   -2.3110   45.0344 N   0  0  0  0  0  0  0  0  0  0  0  0
    8.4302   -2.1360   44.5676 H   0  0  0  0  0  0  0  0  0  0  0  0
 19 20  1  0  0  0
 20  1  1  0  0  0
  1  2  2  0  0  0
  2  3  1  0  0  0
  3  4  2  0  0  0
  4  5  1  0  0  0
  5  6  2  0  0  0
  6  7  1  0  0  0
  7  8  2  0  0  0
  8  9  1  0  0  0
  9 10  2  0  0  0
  8 11  1  0  0  0
 11 12  2  0  0  0
 12 13  1  0  0  0
 13 14  2  0  0  0
 14 15  1  0  0  0
 15 17  1  0  0  0
 17 18  1  0  0  0
 15 16  2  0  0  0
 10  1  1  0  0  0
 10  5  1  0  0  0
 16 11  1  0  0  0
 20 21  1  0  0  0
M  END
> <minimizedAffinity>
-6.46274

> <newdefault_CNNaffinity>
4.81885

> <newdefault_CNNscore>
0.525257

> <CNNaffinity_times_score>
2.5311346

> <protein>
3rik

$$$$
4237524


 23 26  0  0  0  0  0  0  0  0999 V2000
    4.3282   -8.9670   45.7199 C   0  0  0  0  0  0  0  0  0  0  0  0
    5.0329   -7.8173   45.5363 N   0  0  0  0  0  0  0  0  0  0  0  0
    6.1302   -7.7644   44.7379 C   0  0  0  0  0  0  0  0  0  0  0  0
    6.5434   -8.8807   44.0847 N   0  0  0  0  0  0  0  0  0  0  0  0
    5.8836  -10.0592   44.2209 C   0  0  0  0  0  0  0  0  0  0  0  0
    6.3397  -11.1931   43.5391 C   0  0  0  0  0  0  0  0  0  0  0  0
    5.6781  -12.4139   43.6893 C   0  0  0  0  0  0  0  0  0  0  0  0
    4.5635  -12.5090   44.5258 C   0  0  0  0  0  0  0  0  0  0  0  0
    4.0975  -11.3827   45.2114 C   0  0  0  0  0  0  0  0  0  0  0  0
    4.7453  -10.1410   45.0561 C   0  0  0  0  0  0  0  0  0  0  0  0
    6.8647   -6.5010   44.5799 C   0  0  0  0  0  0  0  0  0  0  0  0
    7.0393   -5.7875   43.4107 C   0  0  0  0  0  0  0  0  0  0  0  0
    7.7477   -4.7107   43.6630 O   0  0  0  0  0  0  0  0  0  0  0  0
    8.0453   -4.6844   44.9432 C   0  0  0  0  0  0  0  0  0  0  0  0
    7.5119   -5.7917   45.5705 C   0  0  0  0  0  0  0  0  0  0  0  0
    3.1456   -8.9424   46.5385 N   0  0  0  0  0  0  0  0  0  0  0  0
    2.2680   -8.9380   46.0923 H   0  0  0  0  0  0  0  0  0  0  0  0
    3.1809   -8.9237   47.9765 C   0  0  0  0  0  0  0  0  0  0  0  0
    4.0531   -9.7878   48.6582 C   0  0  0  0  0  0  0  0  0  0  0  0
    4.1142   -9.7746   50.0551 C   0  0  0  0  0  0  0  0  0  0  0  0
    3.3144   -8.8900   50.7828 C   0  0  0  0  0  0  0  0  0  0  0  0
    2.4577   -8.0119   50.1142 C   0  0  0  0  0  0  0  0  0  0  0  0
    2.3936   -8.0216   48.7175 C   0  0  0  0  0  0  0  0  0  0  0  0
 16 18  1  0  0  0
 18 19  2  0  0  0
 19 20  1  0  0  0
 20 21  2  0  0  0
 21 22  1  0  0  0
 22 23  2  0  0  0
 16  1  1  0  0  0
  1  2  2  0  0  0
  2  3  1  0  0  0
  3  4  2  0  0  0
  4  5  1  0  0  0
  5  6  2  0  0  0
  6  7  1  0  0  0
  7  8  2  0  0  0
  8  9  1  0  0  0
  9 10  2  0  0  0
  3 11  1  0  0  0
 11 12  2  0  0  0
 12 13  1  0  0  0
 13 14  1  0  0  0
 14 15  2  0  0  0
 23 18  1  0  0  0
 10  1  1  0  0  0
 10  5  1  0  0  0
 15 11  1  0  0  0
 16 17  1  0  0  0
M  END
> <minimizedAffinity>
-6.17229

> <newdefault_CNNaffinity>
5.11339

> <newdefault_CNNscore>
0.42385

> <CNNaffinity_times_score>
2.1673102

> <protein>
3rik

$$$$
4237580


 22 24  0  0  0  0  0  0  0  0999 V2000
    6.3144   -3.2966   45.4282 C   0  0  0  0  0  0  0  0  0  0  0  0
    7.5228   -3.8560   45.1502 N   0  0  0  0  0  0  0  0  0  0  0  0
    7.6789   -4.7163   44.1121 C   0  0  0  0  0  0  0  0  0  0  0  0
    6.5903   -5.0378   43.3048 C   0  0  0  0  0  0  0  0  0  0  0  0
    5.3449   -4.4669   43.6003 C   0  0  0  0  0  0  0  0  0  0  0  0
    5.2448   -3.5969   44.6403 N   0  0  0  0  0  0  0  0  0  0  0  0
    6.6280   -0.3016   45.0439 C   0  0  0  0  0  0  0  0  0  0  0  0
    6.2863   -0.9220   46.3742 C   0  0  0  0  0  0  0  0  0  0  0  0
    6.1302   -0.0758   47.4878 C   0  0  0  0  0  0  0  0  0  0  0  0
    5.8587   -0.6017   48.7508 C   0  0  0  0  0  0  0  0  0  0  0  0
    5.7453   -1.9786   48.9238 C   0  0  0  0  0  0  0  0  0  0  0  0
    5.8977   -2.8361   47.8340 C   0  0  0  0  0  0  0  0  0  0  0  0
    6.1602   -2.3293   46.5460 C   0  0  0  0  0  0  0  0  0  0  0  0
    4.1885   -4.7214   42.7875 N   0  0  0  0  0  0  0  0  0  0  0  0
    3.7711   -5.6107   42.8515 H   0  0  0  0  0  0  0  0  0  0  0  0
    3.5972   -3.7691   41.8870 C   0  0  0  0  0  0  0  0  0  0  0  0
    2.2421   -3.4048   41.9939 C   0  0  0  0  0  0  0  0  0  0  0  0
    1.6971   -2.4537   41.1256 C   0  0  0  0  0  0  0  0  0  0  0  0
    2.5009   -1.8480   40.1558 C   0  0  0  0  0  0  0  0  0  0  0  0
    1.9712   -0.9246   39.3162 F   0  0  0  0  0  0  0  0  0  0  0  0
    3.8533   -2.1868   40.0591 C   0  0  0  0  0  0  0  0  0  0  0  0
    4.4015   -3.1372   40.9261 C   0  0  0  0  0  0  0  0  0  0  0  0
  7  8  1  0  0  0
  8  9  2  0  0  0
  9 10  1  0  0  0
 10 11  2  0  0  0
 11 12  1  0  0  0
 12 13  2  0  0  0
 13  1  1  0  0  0
  1  2  2  0  0  0
  2  3  1  0  0  0
  3  4  2  0  0  0
  4  5  1  0  0  0
  5 14  1  0  0  0
 14 16  1  0  0  0
 16 17  2  0  0  0
 17 18  1  0  0  0
 18 19  2  0  0  0
 19 20  1  0  0  0
 19 21  1  0  0  0
 21 22  2  0  0  0
  5  6  2  0  0  0
 13  8  1  0  0  0
  6  1  1  0  0  0
 22 16  1  0  0  0
 14 15  1  0  0  0
M  END
> <minimizedAffinity>
-7.05656

> <newdefault_CNNaffinity>
4.84393

> <newdefault_CNNscore>
0.410891

> <CNNaffinity_times_score>
1.9903271

> <protein>
3rik

$$$$
4237905


 23 25  0  0  0  0  0  0  0  0999 V2000
    3.9551   -5.5888   43.2323 C   0  0  0  0  0  0  0  0  0  0  0  0
    5.0490   -5.0327   43.9138 C   0  0  0  0  0  0  0  0  0  0  0  0
    5.2625   -3.6579   43.8258 C   0  0  0  0  0  0  0  0  0  0  0  0
    4.4163   -2.8854   43.0994 N   0  0  0  0  0  0  0  0  0  0  0  0
    3.3612   -3.4302   42.4332 C   0  0  0  0  0  0  0  0  0  0  0  0
    3.1391   -4.7698   42.5158 N   0  0  0  0  0  0  0  0  0  0  0  0
    2.4301   -2.5578   41.6794 C   0  0  0  0  0  0  0  0  0  0  0  0
    1.2160   -2.1771   42.2834 C   0  0  0  0  0  0  0  0  0  0  0  0
    0.2909   -1.3920   41.5910 C   0  0  0  0  0  0  0  0  0  0  0  0
    0.5706   -0.9637   40.2926 C   0  0  0  0  0  0  0  0  0  0  0  0
    1.7782   -1.3136   39.6852 C   0  0  0  0  0  0  0  0  0  0  0  0
    2.7101   -2.1094   40.3647 C   0  0  0  0  0  0  0  0  0  0  0  0
    4.2354   -2.4496   39.5522 Cl  0  0  0  0  0  0  0  0  0  0  0  0
    3.6541   -6.9926   43.2825 N   0  0  0  0  0  0  0  0  0  0  0  0
    4.3797   -7.6068   43.5384 H   0  0  0  0  0  0  0  0  0  0  0  0
    2.3459   -7.5749   42.9806 C   0  0  0  0  0  0  0  0  0  0  0  0
    1.7755   -9.3111   38.2701 C   0  0  0  0  0  0  0  0  0  0  0  0
    2.2124   -9.5151   39.6931 C   0  0  0  0  0  0  0  0  0  0  0  0
    2.7881  -10.7340   40.0794 C   0  0  0  0  0  0  0  0  0  0  0  0
    3.2126  -10.9259   41.3969 C   0  0  0  0  0  0  0  0  0  0  0  0
    3.0544   -9.9084   42.3411 C   0  0  0  0  0  0  0  0  0  0  0  0
    2.4724   -8.6863   41.9723 C   0  0  0  0  0  0  0  0  0  0  0  0
    2.0648   -8.4912   40.6415 C   0  0  0  0  0  0  0  0  0  0  0  0
 17 18  1  0  0  0
 18 19  2  0  0  0
 19 20  1  0  0  0
 20 21  2  0  0  0
 21 22  1  0  0  0
 22 16  1  0  0  0
 16 14  1  0  0  0
 14  1  1  0  0  0
  1  2  2  0  0  0
  2  3  1  0  0  0
  3  4  2  0  0  0
  4  5  1  0  0  0
  5  6  2  0  0  0
  5  7  1  0  0  0
  7  8  2  0  0  0
  8  9  1  0  0  0
  9 10  2  0  0  0
 10 11  1  0  0  0
 11 12  2  0  0  0
 12 13  1  0  0  0
 22 23  2  0  0  0
 23 18  1  0  0  0
  6  1  1  0  0  0
 12  7  1  0  0  0
 14 15  1  0  0  0
M  END
> <minimizedAffinity>
-5.63159

> <newdefault_CNNaffinity>
5.25806

> <newdefault_CNNscore>
0.518194

> <CNNaffinity_times_score>
2.7246952

> <protein>
3rik

$$$$
4238483


 28 31  0  0  0  0  0  0  0  0999 V2000
   35.3735   30.2412   -4.0019 C   0  0  0  0  0  0  0  0  0  0  0  0
   35.2999   30.7092   -2.7277 N   0  0  0  0  0  0  0  0  0  0  0  0
   34.3534   31.6067   -2.3469 C   0  0  0  0  0  0  0  0  0  0  0  0
   33.4476   32.0574   -3.2527 N   0  0  0  0  0  0  0  0  0  0  0  0
   33.4592   31.6182   -4.5372 C   0  0  0  0  0  0  0  0  0  0  0  0
   32.5023   32.0912   -5.4446 C   0  0  0  0  0  0  0  0  0  0  0  0
   32.4842   31.6126   -6.7568 C   0  0  0  0  0  0  0  0  0  0  0  0
   33.4121   30.6497   -7.1634 C   0  0  0  0  0  0  0  0  0  0  0  0
   34.3761   30.1754   -6.2675 C   0  0  0  0  0  0  0  0  0  0  0  0
   34.4235   30.6718   -4.9508 C   0  0  0  0  0  0  0  0  0  0  0  0
   34.3042   32.0811   -0.9548 C   0  0  0  0  0  0  0  0  0  0  0  0
   35.1640   31.7316    0.0694 C   0  0  0  0  0  0  0  0  0  0  0  0
   34.8129   32.3657    1.1646 O   0  0  0  0  0  0  0  0  0  0  0  0
   33.7627   33.1152    0.9074 C   0  0  0  0  0  0  0  0  0  0  0  0
   33.3984   32.9735   -0.4171 C   0  0  0  0  0  0  0  0  0  0  0  0
   36.4117   29.3106   -4.3329 N   0  0  0  0  0  0  0  0  0  0  0  0
   36.3089   28.3592   -4.1017 H   0  0  0  0  0  0  0  0  0  0  0  0
   37.6246   29.7683   -5.0134 C   0  0  0  0  0  0  0  0  0  0  0  0
   38.2392   27.3970   -8.5864 C   0  0  0  0  0  0  0  0  0  0  0  0
   37.6935   26.8317   -7.4319 C   0  0  0  0  0  0  0  0  0  0  0  0
   37.5046   27.6024   -6.2857 C   0  0  0  0  0  0  0  0  0  0  0  0
   37.8720   28.9582   -6.2657 C   0  0  0  0  0  0  0  0  0  0  0  0
   38.4213   29.5461   -7.4272 C   0  0  0  0  0  0  0  0  0  0  0  0
   38.6029   28.7561   -8.5814 C   0  0  0  0  0  0  0  0  0  0  0  0
   39.1196   25.3494   -9.7224 C   0  0  0  0  0  0  0  0  0  0  0  0
   38.3991   26.5775   -9.7139 O   0  0  0  0  0  0  0  0  0  0  0  0
   38.7718   30.9073   -7.4060 O   0  0  0  0  0  0  0  0  0  0  0  0
   38.0613   31.9412   -8.0825 C   0  0  0  0  0  0  0  0  0  0  0  0
 25 26  1  0  0  0
 26 19  1  0  0  0
 19 20  2  0  0  0
 20 21  1  0  0  0
 21 22  2  0  0  0
 22 18  1  0  0  0
 18 16  1  0  0  0
 16  1  1  0  0  0
  1  2  2  0  0  0
  2  3  1  0  0  0
  3  4  2  0  0  0
  4  5  1  0  0  0
  5  6  2  0  0  0
  6  7  1  0  0  0
  7  8  2  0  0  0
  8  9  1  0  0  0
  9 10  2  0  0  0
  3 11  1  0  0  0
 11 12  2  0  0  0
 12 13  1  0  0  0
 13 14  1  0  0  0
 14 15  2  0  0  0
 22 23  1  0  0  0
 23 27  1  0  0  0
 27 28  1  0  0  0
 23 24  2  0  0  0
 24 19  1  0  0  0
 10  1  1  0  0  0
 10  5  1  0  0  0
 15 11  1  0  0  0
 16 17  1  0  0  0
M  END
> <minimizedAffinity>
-7.47218

> <newdefault_CNNaffinity>
5.95003

> <newdefault_CNNscore>
0.326768

> <CNNaffinity_times_score>
1.9442794

> <protein>
2v3e

$$$$
4238642


 26 28  0  0  0  0  0  0  0  0999 V2000
   35.7646   30.1798   -5.7777 N   0  0  0  0  0  0  0  0  0  0  0  0
   34.8711   29.7721   -5.7087 H   0  0  0  0  0  0  0  0  0  0  0  0
   36.8702   29.2901   -6.0192 C   0  0  0  0  0  0  0  0  0  0  0  0
   38.0797   29.3684   -5.3088 C   0  0  0  0  0  0  0  0  0  0  0  0
   39.0983   28.4710   -5.6244 C   0  0  0  0  0  0  0  0  0  0  0  0
   38.9155   27.5511   -6.6049 N   0  0  0  0  0  0  0  0  0  0  0  0
   37.7499   27.4889   -7.3038 C   0  0  0  0  0  0  0  0  0  0  0  0
   36.7450   28.3530   -6.9974 N   0  0  0  0  0  0  0  0  0  0  0  0
   37.5719   26.4592   -8.3593 C   0  0  0  0  0  0  0  0  0  0  0  0
   37.4073   25.1140   -7.9730 C   0  0  0  0  0  0  0  0  0  0  0  0
   37.2182   24.1135   -8.9291 C   0  0  0  0  0  0  0  0  0  0  0  0
   37.1938   24.4368  -10.2848 C   0  0  0  0  0  0  0  0  0  0  0  0
   37.3662   25.7608  -10.6892 C   0  0  0  0  0  0  0  0  0  0  0  0
   37.5595   26.7756   -9.7423 C   0  0  0  0  0  0  0  0  0  0  0  0
   37.8507   28.4023  -10.3537 Cl  0  0  0  0  0  0  0  0  0  0  0  0
   35.8432   31.6338   -5.6251 C   0  0  0  0  0  0  0  0  0  0  0  0
   35.2443   32.7159   -1.4803 C   0  0  0  0  0  0  0  0  0  0  0  0
   34.3995   31.7999   -2.1109 C   0  0  0  0  0  0  0  0  0  0  0  0
   34.6032   31.4491   -3.4456 C   0  0  0  0  0  0  0  0  0  0  0  0
   35.6677   32.0022   -4.1739 C   0  0  0  0  0  0  0  0  0  0  0  0
   36.5195   32.9412   -3.5573 C   0  0  0  0  0  0  0  0  0  0  0  0
   36.3043   33.2884   -2.2077 C   0  0  0  0  0  0  0  0  0  0  0  0
   33.8290   32.6396    0.5809 C   0  0  0  0  0  0  0  0  0  0  0  0
   34.9942   33.0331   -0.1365 O   0  0  0  0  0  0  0  0  0  0  0  0
   37.5617   33.5076   -4.3089 O   0  0  0  0  0  0  0  0  0  0  0  0
   38.0076   34.8546   -4.1939 C   0  0  0  0  0  0  0  0  0  0  0  0
 23 24  1  0  0  0
 24 17  1  0  0  0
 17 18  2  0  0  0
 18 19  1  0  0  0
 19 20  2  0  0  0
 20 16  1  0  0  0
 16  1  1  0  0  0
  1  3  1  0  0  0
  3  4  2  0  0  0
  4  5  1  0  0  0
  5  6  2  0  0  0
  6  7  1  0  0  0
  7  8  2  0  0  0
  7  9  1  0  0  0
  9 10  2  0  0  0
 10 11  1  0  0  0
 11 12  2  0  0  0
 12 13  1  0  0  0
 13 14  2  0  0  0
 14 15  1  0  0  0
 20 21  1  0  0  0
 21 25  1  0  0  0
 25 26  1  0  0  0
 21 22  2  0  0  0
 22 17  1  0  0  0
  8  3  1  0  0  0
 14  9  1  0  0  0
  1  2  1  0  0  0
M  END
> <minimizedAffinity>
-6.90111

> <newdefault_CNNaffinity>
5.22191

> <newdefault_CNNscore>
0.0812186

> <CNNaffinity_times_score>
0.42411622

> <protein>
2v3e

$$$$
4238746


 21 23  0  0  0  0  0  0  0  0999 V2000
    6.3403   -3.8695   46.5090 C   0  0  0  0  0  0  0  0  0  0  0  0
    7.6088   -4.3467   46.3726 N   0  0  0  0  0  0  0  0  0  0  0  0
    7.8474   -5.5726   45.8399 C   0  0  0  0  0  0  0  0  0  0  0  0
    6.7836   -6.3663   45.4161 C   0  0  0  0  0  0  0  0  0  0  0  0
    5.4846   -5.8687   45.5510 C   0  0  0  0  0  0  0  0  0  0  0  0
    5.2962   -4.6331   46.0881 N   0  0  0  0  0  0  0  0  0  0  0  0
    5.8849   -1.4187   44.7618 C   0  0  0  0  0  0  0  0  0  0  0  0
    5.9171   -1.3560   46.2679 C   0  0  0  0  0  0  0  0  0  0  0  0
    5.7057   -0.1105   46.8880 C   0  0  0  0  0  0  0  0  0  0  0  0
    5.6855    0.0006   48.2779 C   0  0  0  0  0  0  0  0  0  0  0  0
    5.8702   -1.1286   49.0708 C   0  0  0  0  0  0  0  0  0  0  0  0
    6.0799   -2.3738   48.4779 C   0  0  0  0  0  0  0  0  0  0  0  0
    6.1150   -2.5124   47.0759 C   0  0  0  0  0  0  0  0  0  0  0  0
    4.3611   -6.6535   45.1287 N   0  0  0  0  0  0  0  0  0  0  0  0
    4.2634   -6.8822   44.1761 H   0  0  0  0  0  0  0  0  0  0  0  0
    3.3573   -7.1213   46.0841 C   0  0  0  0  0  0  0  0  0  0  0  0
    3.7287   -8.4648   46.6316 C   0  0  0  0  0  0  0  0  0  0  0  0
    4.2091   -9.5419   45.8981 C   0  0  0  0  0  0  0  0  0  0  0  0
    4.4750  -10.6683   46.6860 C   0  0  0  0  0  0  0  0  0  0  0  0
    4.2074  -10.4808   48.0362 C   0  0  0  0  0  0  0  0  0  0  0  0
    3.6395   -8.9120   48.2504 S   0  0  0  0  0  0  0  0  0  0  0  0
  7  8  1  0  0  0
  8  9  2  0  0  0
  9 10  1  0  0  0
 10 11  2  0  0  0
 11 12  1  0  0  0
 12 13  2  0  0  0
 13  1  1  0  0  0
  1  2  2  0  0  0
  2  3  1  0  0  0
  3  4  2  0  0  0
  4  5  1  0  0  0
  5 14  1  0  0  0
 14 16  1  0  0  0
 16 17  1  0  0  0
 17 18  2  0  0  0
 18 19  1  0  0  0
 19 20  2  0  0  0
 20 21  1  0  0  0
  5  6  2  0  0  0
 13  8  1  0  0  0
  6  1  1  0  0  0
 21 17  1  0  0  0
 14 15  1  0  0  0
M  END
> <minimizedAffinity>
-5.15196

> <newdefault_CNNaffinity>
4.97054

> <newdefault_CNNscore>
0.482945

> <CNNaffinity_times_score>
2.4004974

> <protein>
3rik

$$$$
4239017


 24 27  0  0  0  0  0  0  0  0999 V2000
   35.0694   29.9712   -3.9759 C   0  0  0  0  0  0  0  0  0  0  0  0
   35.0450   30.4525   -2.7033 N   0  0  0  0  0  0  0  0  0  0  0  0
   34.2473   31.4900   -2.3404 C   0  0  0  0  0  0  0  0  0  0  0  0
   33.4331   32.0684   -3.2602 N   0  0  0  0  0  0  0  0  0  0  0  0
   33.4057   31.6345   -4.5460 C   0  0  0  0  0  0  0  0  0  0  0  0
   32.5600   32.2570   -5.4711 C   0  0  0  0  0  0  0  0  0  0  0  0
   32.5404   31.8294   -6.8005 C   0  0  0  0  0  0  0  0  0  0  0  0
   33.3698   30.7840   -7.2129 C   0  0  0  0  0  0  0  0  0  0  0  0
   34.2184   30.1532   -6.2977 C   0  0  0  0  0  0  0  0  0  0  0  0
   34.2362   30.5633   -4.9496 C   0  0  0  0  0  0  0  0  0  0  0  0
   34.2646   31.9815   -0.9552 C   0  0  0  0  0  0  0  0  0  0  0  0
   35.2077   31.6945    0.0117 C   0  0  0  0  0  0  0  0  0  0  0  0
   34.8901   32.3170    1.1236 O   0  0  0  0  0  0  0  0  0  0  0  0
   33.7832   32.9993    0.9312 C   0  0  0  0  0  0  0  0  0  0  0  0
   33.3445   32.8235   -0.3653 C   0  0  0  0  0  0  0  0  0  0  0  0
   35.8995   28.8367   -4.2817 N   0  0  0  0  0  0  0  0  0  0  0  0
   35.6164   27.9501   -3.9608 H   0  0  0  0  0  0  0  0  0  0  0  0
   40.6413   29.1337   -7.2536 F   0  0  0  0  0  0  0  0  0  0  0  0
   39.4944   29.0685   -6.5336 C   0  0  0  0  0  0  0  0  0  0  0  0
   39.0515   27.8410   -6.0338 C   0  0  0  0  0  0  0  0  0  0  0  0
   37.8680   27.7717   -5.2924 C   0  0  0  0  0  0  0  0  0  0  0  0
   37.1224   28.9330   -5.0330 C   0  0  0  0  0  0  0  0  0  0  0  0
   37.5655   30.1622   -5.5577 C   0  0  0  0  0  0  0  0  0  0  0  0
   38.7496   30.2273   -6.2986 C   0  0  0  0  0  0  0  0  0  0  0  0
 18 19  1  0  0  0
 19 20  2  0  0  0
 20 21  1  0  0  0
 21 22  2  0  0  0
 22 16  1  0  0  0
 16  1  1  0  0  0
  1  2  2  0  0  0
  2  3  1  0  0  0
  3  4  2  0  0  0
  4  5  1  0  0  0
  5  6  2  0  0  0
  6  7  1  0  0  0
  7  8  2  0  0  0
  8  9  1  0  0  0
  9 10  2  0  0  0
  3 11  1  0  0  0
 11 12  2  0  0  0
 12 13  1  0  0  0
 13 14  1  0  0  0
 14 15  2  0  0  0
 22 23  1  0  0  0
 23 24  2  0  0  0
 24 19  1  0  0  0
 10  1  1  0  0  0
 10  5  1  0  0  0
 15 11  1  0  0  0
 16 17  1  0  0  0
M  END
> <minimizedAffinity>
-8.07666

> <newdefault_CNNaffinity>
5.93066

> <newdefault_CNNscore>
0.505979

> <CNNaffinity_times_score>
3.0007894

> <protein>
2v3d

$$$$
4239220


 22 24  0  0  0  0  0  0  0  0999 V2000
  -35.3251  -16.7644    1.3174 C   0  0  0  0  0  0  0  0  0  0  0  0
  -35.3267  -17.9447    1.9933 N   0  0  0  0  0  0  0  0  0  0  0  0
  -34.8500  -18.0304    3.2610 C   0  0  0  0  0  0  0  0  0  0  0  0
  -34.3384  -16.8982    3.8917 C   0  0  0  0  0  0  0  0  0  0  0  0
  -34.3275  -15.6845    3.1872 C   0  0  0  0  0  0  0  0  0  0  0  0
  -34.8179  -15.6532    1.9189 N   0  0  0  0  0  0  0  0  0  0  0  0
  -33.6426  -15.0937   -0.8010 Cl  0  0  0  0  0  0  0  0  0  0  0  0
  -35.1651  -15.9342   -1.0834 C   0  0  0  0  0  0  0  0  0  0  0  0
  -35.6955  -15.8860   -2.3792 C   0  0  0  0  0  0  0  0  0  0  0  0
  -36.8651  -16.5791   -2.6929 C   0  0  0  0  0  0  0  0  0  0  0  0
  -37.5120  -17.3331   -1.7152 C   0  0  0  0  0  0  0  0  0  0  0  0
  -36.9957  -17.3907   -0.4189 C   0  0  0  0  0  0  0  0  0  0  0  0
  -35.8235  -16.6875   -0.0784 C   0  0  0  0  0  0  0  0  0  0  0  0
  -33.8113  -14.4738    3.7635 N   0  0  0  0  0  0  0  0  0  0  0  0
  -32.9102  -14.4922    4.1597 H   0  0  0  0  0  0  0  0  0  0  0  0
  -34.5572  -13.2135    3.7917 C   0  0  0  0  0  0  0  0  0  0  0  0
  -35.9311  -13.4172    4.3747 C   0  0  0  0  0  0  0  0  0  0  0  0
  -37.0666  -13.2883    3.5573 C   0  0  0  0  0  0  0  0  0  0  0  0
  -38.3450  -13.4741    4.0925 C   0  0  0  0  0  0  0  0  0  0  0  0
  -38.4989  -13.7900    5.4452 C   0  0  0  0  0  0  0  0  0  0  0  0
  -37.3745  -13.9202    6.2649 C   0  0  0  0  0  0  0  0  0  0  0  0
  -36.0939  -13.7351    5.7339 C   0  0  0  0  0  0  0  0  0  0  0  0
  7  8  1  0  0  0
  8  9  2  0  0  0
  9 10  1  0  0  0
 10 11  2  0  0  0
 11 12  1  0  0  0
 12 13  2  0  0  0
 13  1  1  0  0  0
  1  2  2  0  0  0
  2  3  1  0  0  0
  3  4  2  0  0  0
  4  5  1  0  0  0
  5 14  1  0  0  0
 14 16  1  0  0  0
 16 17  1  0  0  0
 17 18  2  0  0  0
 18 19  1  0  0  0
 19 20  2  0  0  0
 20 21  1  0  0  0
 21 22  2  0  0  0
  5  6  2  0  0  0
 13  8  1  0  0  0
  6  1  1  0  0  0
 22 17  1  0  0  0
 14 15  1  0  0  0
M  END
> <minimizedAffinity>
-7.27388

> <newdefault_CNNaffinity>
5.3262

> <newdefault_CNNscore>
0.40261

> <CNNaffinity_times_score>
2.1443815

> <protein>
2xwe

$$$$
4239445


 25 27  0  0  0  0  0  0  0  0999 V2000
  -11.2906   -6.2347   39.2614 C   0  0  0  0  0  0  0  0  0  0  0  0
  -10.6402   -5.3048   40.0105 N   0  0  0  0  0  0  0  0  0  0  0  0
   -9.3666   -4.9345   39.7188 C   0  0  0  0  0  0  0  0  0  0  0  0
   -8.7012   -5.5201   38.6430 C   0  0  0  0  0  0  0  0  0  0  0  0
   -9.3714   -6.4849   37.8862 C   0  0  0  0  0  0  0  0  0  0  0  0
  -10.6478   -6.8213   38.2157 N   0  0  0  0  0  0  0  0  0  0  0  0
  -12.9377   -7.7630   40.4749 C   0  0  0  0  0  0  0  0  0  0  0  0
  -14.2826   -8.0945   40.7430 C   0  0  0  0  0  0  0  0  0  0  0  0
  -15.3276   -7.3552   40.1882 C   0  0  0  0  0  0  0  0  0  0  0  0
  -15.0545   -6.2718   39.3582 C   0  0  0  0  0  0  0  0  0  0  0  0
  -13.7352   -5.9275   39.0729 C   0  0  0  0  0  0  0  0  0  0  0  0
  -12.6645   -6.6638   39.6108 C   0  0  0  0  0  0  0  0  0  0  0  0
  -11.0540   -9.1899   40.1688 F   0  0  0  0  0  0  0  0  0  0  0  0
  -11.8285   -8.5664   41.1318 C   0  0  0  0  0  0  0  0  0  0  0  0
  -12.3788   -9.5196   41.9697 F   0  0  0  0  0  0  0  0  0  0  0  0
  -10.9929   -7.7591   41.8876 F   0  0  0  0  0  0  0  0  0  0  0  0
   -8.7157   -7.1191   36.7781 N   0  0  0  0  0  0  0  0  0  0  0  0
   -9.1000   -7.0141   35.8778 H   0  0  0  0  0  0  0  0  0  0  0  0
   -7.4996   -7.9147   36.9343 C   0  0  0  0  0  0  0  0  0  0  0  0
   -7.8223   -9.3848   36.9101 C   0  0  0  0  0  0  0  0  0  0  0  0
   -8.6790   -9.9300   37.8794 C   0  0  0  0  0  0  0  0  0  0  0  0
   -9.0023  -11.2895   37.8499 C   0  0  0  0  0  0  0  0  0  0  0  0
   -8.4693  -12.1143   36.8554 C   0  0  0  0  0  0  0  0  0  0  0  0
   -7.6073  -11.5820   35.8933 C   0  0  0  0  0  0  0  0  0  0  0  0
   -7.2824  -10.2220   35.9192 C   0  0  0  0  0  0  0  0  0  0  0  0
 13 14  1  0  0  0
 14 15  1  0  0  0
 14 16  1  0  0  0
 14  7  1  0  0  0
  7  8  2  0  0  0
  8  9  1  0  0  0
  9 10  2  0  0  0
 10 11  1  0  0  0
 11 12  2  0  0  0
 12  1  1  0  0  0
  1  2  2  0  0  0
  2  3  1  0  0  0
  3  4  2  0  0  0
  4  5  1  0  0  0
  5 17  1  0  0  0
 17 19  1  0  0  0
 19 20  1  0  0  0
 20 21  2  0  0  0
 21 22  1  0  0  0
 22 23  2  0  0  0
 23 24  1  0  0  0
 24 25  2  0  0  0
  5  6  2  0  0  0
 12  7  1  0  0  0
  6  1  1  0  0  0
 25 20  1  0  0  0
 17 18  1  0  0  0
M  END
> <minimizedAffinity>
-8.17381

> <newdefault_CNNaffinity>
5.39381

> <newdefault_CNNscore>
0.0570476

> <CNNaffinity_times_score>
0.3077039

> <protein>
3ril

$$$$
4239566


 32 36  0  0  0  0  0  0  0  0999 V2000
   -9.5961   -5.1195   37.2555 N   0  0  0  0  0  0  0  0  0  0  0  0
  -10.5285   -5.3156   37.0074 H   0  0  0  0  0  0  0  0  0  0  0  0
   -8.6282   -4.9409   36.2062 C   0  0  0  0  0  0  0  0  0  0  0  0
   -8.4040   -3.6915   35.7163 N   0  0  0  0  0  0  0  0  0  0  0  0
   -7.4777   -3.4426   34.7530 C   0  0  0  0  0  0  0  0  0  0  0  0
   -6.7393   -4.4698   34.2582 N   0  0  0  0  0  0  0  0  0  0  0  0
   -6.9137   -5.7420   34.6965 C   0  0  0  0  0  0  0  0  0  0  0  0
   -6.1400   -6.7735   34.1520 C   0  0  0  0  0  0  0  0  0  0  0  0
   -6.3293   -8.0898   34.5759 C   0  0  0  0  0  0  0  0  0  0  0  0
   -7.2963   -8.3827   35.5399 C   0  0  0  0  0  0  0  0  0  0  0  0
   -8.0736   -7.3610   36.0940 C   0  0  0  0  0  0  0  0  0  0  0  0
   -7.8808   -6.0235   35.6896 C   0  0  0  0  0  0  0  0  0  0  0  0
   -7.2698   -2.0615   34.2544 C   0  0  0  0  0  0  0  0  0  0  0  0
   -6.8680   -1.0324   35.1249 C   0  0  0  0  0  0  0  0  0  0  0  0
   -6.6725    0.2619   34.6400 C   0  0  0  0  0  0  0  0  0  0  0  0
   -6.8795    0.5239   33.2855 C   0  0  0  0  0  0  0  0  0  0  0  0
   -7.2693   -0.4752   32.4514 N   0  0  0  0  0  0  0  0  0  0  0  0
   -7.4670   -1.7450   32.8971 C   0  0  0  0  0  0  0  0  0  0  0  0
   -9.2553   -5.0226   38.6762 C   0  0  0  0  0  0  0  0  0  0  0  0
   -9.3418   -6.3971   39.3448 C   0  0  0  0  0  0  0  0  0  0  0  0
  -11.4709   -9.8094   41.6040 C   0  0  0  0  0  0  0  0  0  0  0  0
  -12.4525   -9.3239   42.5127 C   0  0  0  0  0  0  0  0  0  0  0  0
  -12.6714   -7.9422   42.6608 C   0  0  0  0  0  0  0  0  0  0  0  0
  -11.8982   -7.0725   41.8962 C   0  0  0  0  0  0  0  0  0  0  0  0
  -11.9598   -5.7293   41.8777 N   0  0  0  0  0  0  0  0  0  0  0  0
  -11.0367   -5.3255   40.9753 C   0  0  0  0  0  0  0  0  0  0  0  0
  -10.3812   -6.4246   40.4276 C   0  0  0  0  0  0  0  0  0  0  0  0
  -10.9500   -7.5337   41.0218 C   0  0  0  0  0  0  0  0  0  0  0  0
  -10.7105   -8.8960   40.8476 C   0  0  0  0  0  0  0  0  0  0  0  0
  -12.5556   -5.1563   42.4123 H   0  0  0  0  0  0  0  0  0  0  0  0
  -11.3181  -11.8564   40.1793 C   0  0  0  0  0  0  0  0  0  0  0  0
  -11.2266  -11.1790   41.4280 O   0  0  0  0  0  0  0  0  0  0  0  0
 31 32  1  0  0  0
 32 21  1  0  0  0
 21 22  2  0  0  0
 22 23  1  0  0  0
 23 24  2  0  0  0
 24 25  1  0  0  0
 25 26  1  0  0  0
 26 27  2  0  0  0
 27 20  1  0  0  0
 20 19  1  0  0  0
 19  1  1  0  0  0
  1  3  1  0  0  0
  3  4  2  0  0  0
  4  5  1  0  0  0
  5  6  2  0  0  0
  6  7  1  0  0  0
  7  8  2  0  0  0
  8  9  1  0  0  0
  9 10  2  0  0  0
 10 11  1  0  0  0
 11 12  2  0  0  0
  5 13  1  0  0  0
 13 14  2  0  0  0
 14 15  1  0  0  0
 15 16  2  0  0  0
 16 17  1  0  0  0
 17 18  2  0  0  0
 27 28  1  0  0  0
 28 29  2  0  0  0
 29 21  1  0  0  0
 28 24  1  0  0  0
 12  3  1  0  0  0
 12  7  1  0  0  0
 18 13  1  0  0  0
 25 30  1  0  0  0
  1  2  1  0  0  0
M  END
> <minimizedAffinity>
-9.16878

> <newdefault_CNNaffinity>
6.76011

> <newdefault_CNNscore>
0.617928

> <CNNaffinity_times_score>
4.1772614

> <protein>
3ril

$$$$
4239593


 29 32  0  0  0  0  0  0  0  0999 V2000
  -33.3065  -16.0935    7.1165 N   0  0  0  0  0  0  0  0  0  0  0  0
  -32.4639  -15.8185    7.5450 H   0  0  0  0  0  0  0  0  0  0  0  0
  -34.2206  -16.9350    7.8350 C   0  0  0  0  0  0  0  0  0  0  0  0
  -34.0977  -17.0949    9.2194 C   0  0  0  0  0  0  0  0  0  0  0  0
  -35.0122  -17.9154    9.8789 C   0  0  0  0  0  0  0  0  0  0  0  0
  -35.9980  -18.5353    9.1778 N   0  0  0  0  0  0  0  0  0  0  0  0
  -36.1174  -18.3672    7.8334 C   0  0  0  0  0  0  0  0  0  0  0  0
  -35.2249  -17.5760    7.1762 N   0  0  0  0  0  0  0  0  0  0  0  0
  -37.1800  -19.0655    7.0710 C   0  0  0  0  0  0  0  0  0  0  0  0
  -36.9064  -20.3543    6.5729 C   0  0  0  0  0  0  0  0  0  0  0  0
  -37.8734  -21.0649    5.8594 C   0  0  0  0  0  0  0  0  0  0  0  0
  -39.1277  -20.4993    5.6283 C   0  0  0  0  0  0  0  0  0  0  0  0
  -39.4151  -19.2163    6.1001 C   0  0  0  0  0  0  0  0  0  0  0  0
  -38.4483  -18.4788    6.8091 C   0  0  0  0  0  0  0  0  0  0  0  0
  -38.7873  -17.0742    7.2430 C   0  0  0  0  0  0  0  0  0  0  0  0
  -33.6051  -15.6360    5.7549 C   0  0  0  0  0  0  0  0  0  0  0  0
  -32.9102  -16.5029    4.6968 C   0  0  0  0  0  0  0  0  0  0  0  0
  -34.2081  -15.4418    0.3738 C   0  0  0  0  0  0  0  0  0  0  0  0
  -35.1794  -16.3499   -0.1321 C   0  0  0  0  0  0  0  0  0  0  0  0
  -35.6472  -17.4141    0.6638 C   0  0  0  0  0  0  0  0  0  0  0  0
  -35.1338  -17.5460    1.9534 C   0  0  0  0  0  0  0  0  0  0  0  0
  -35.4351  -18.4965    2.8565 N   0  0  0  0  0  0  0  0  0  0  0  0
  -34.6775  -18.2337    3.9458 C   0  0  0  0  0  0  0  0  0  0  0  0
  -33.8970  -17.1001    3.7321 C   0  0  0  0  0  0  0  0  0  0  0  0
  -34.1978  -16.6754    2.4481 C   0  0  0  0  0  0  0  0  0  0  0  0
  -33.7148  -15.6082    1.6849 C   0  0  0  0  0  0  0  0  0  0  0  0
  -36.0774  -19.2345    2.7466 H   0  0  0  0  0  0  0  0  0  0  0  0
  -33.8452  -14.2713   -1.8112 C   0  0  0  0  0  0  0  0  0  0  0  0
  -33.7071  -14.3791   -0.3937 O   0  0  0  0  0  0  0  0  0  0  0  0
 28 29  1  0  0  0
 29 18  1  0  0  0
 18 19  2  0  0  0
 19 20  1  0  0  0
 20 21  2  0  0  0
 21 22  1  0  0  0
 22 23  1  0  0  0
 23 24  2  0  0  0
 24 17  1  0  0  0
 17 16  1  0  0  0
 16  1  1  0  0  0
  1  3  1  0  0  0
  3  4  2  0  0  0
  4  5  1  0  0  0
  5  6  2  0  0  0
  6  7  1  0  0  0
  7  8  2  0  0  0
  7  9  1  0  0  0
  9 10  2  0  0  0
 10 11  1  0  0  0
 11 12  2  0  0  0
 12 13  1  0  0  0
 13 14  2  0  0  0
 14 15  1  0  0  0
 24 25  1  0  0  0
 25 26  2  0  0  0
 26 18  1  0  0  0
 25 21  1  0  0  0
  8  3  1  0  0  0
 14  9  1  0  0  0
 22 27  1  0  0  0
  1  2  1  0  0  0
M  END
> <minimizedAffinity>
-8.15023

> <newdefault_CNNaffinity>
6.15349

> <newdefault_CNNscore>
0.467247

> <CNNaffinity_times_score>
2.8751998

> <protein>
2xwe

$$$$
4239672


 25 28  0  0  0  0  0  0  0  0999 V2000
  -33.4659  -16.1774    3.4056 C   0  0  0  0  0  0  0  0  0  0  0  0
  -34.8258  -16.0908    4.1004 C   0  0  0  0  0  0  0  0  0  0  0  0
  -35.5746  -14.9115    3.6447 N   0  0  0  0  0  0  0  0  0  0  0  0
  -35.1619  -14.2026    2.4250 C   0  0  0  0  0  0  0  0  0  0  0  0
  -34.7301  -15.2093    1.3223 C   0  0  0  0  0  0  0  0  0  0  0  0
  -33.5917  -16.1467    1.8716 C   0  0  0  0  0  0  0  0  0  0  0  0
  -35.9740  -16.0508    0.8746 C   0  0  0  0  0  0  0  0  0  0  0  0
  -36.0141  -16.3487   -0.6387 C   0  0  0  0  0  0  0  0  0  0  0  0
  -34.6667  -16.5178   -1.1961 N   0  0  0  0  0  0  0  0  0  0  0  0
  -33.8526  -15.2884   -1.1026 C   0  0  0  0  0  0  0  0  0  0  0  0
  -34.2094  -14.3966    0.1083 C   0  0  0  0  0  0  0  0  0  0  0  0
  -34.7504  -16.7798   -2.1783 H   0  0  0  0  0  0  0  0  0  0  0  0
  -34.1965  -17.2408   -0.6516 H   0  0  0  0  0  0  0  0  0  0  0  0
  -36.6412  -14.3848    4.4530 C   0  0  0  0  0  0  0  0  0  0  0  0
  -37.1937  -15.1522    5.4894 C   0  0  0  0  0  0  0  0  0  0  0  0
  -38.2274  -14.6380    6.2769 C   0  0  0  0  0  0  0  0  0  0  0  0
  -38.7261  -13.3437    6.0449 C   0  0  0  0  0  0  0  0  0  0  0  0
  -38.1651  -12.5756    5.0089 C   0  0  0  0  0  0  0  0  0  0  0  0
  -37.1317  -13.0916    4.2224 C   0  0  0  0  0  0  0  0  0  0  0  0
  -39.8247  -12.7963    6.8816 C   0  0  0  0  0  0  0  0  0  0  0  0
  -39.8684  -11.4250    7.1985 C   0  0  0  0  0  0  0  0  0  0  0  0
  -40.9035  -10.9129    7.9867 C   0  0  0  0  0  0  0  0  0  0  0  0
  -41.9050  -11.7602    8.4658 C   0  0  0  0  0  0  0  0  0  0  0  0
  -41.8731  -13.1221    8.1582 C   0  0  0  0  0  0  0  0  0  0  0  0
  -40.8399  -13.6400    7.3714 C   0  0  0  0  0  0  0  0  0  0  0  0
  1  2  1  0  0  0
  2  3  1  0  0  0
  3  4  1  0  0  0
  4  5  1  0  0  0
  5  6  1  0  0  0
  5  7  1  0  0  0
  7  8  1  0  0  0
  8  9  1  0  0  0
  9 10  1  0  0  0
 10 11  1  0  0  0
  3 14  1  0  0  0
 14 15  2  0  0  0
 15 16  1  0  0  0
 16 17  2  0  0  0
 17 18  1  0  0  0
 18 19  2  0  0  0
 17 20  1  0  0  0
 20 21  2  0  0  0
 21 22  1  0  0  0
 22 23  2  0  0  0
 23 24  1  0  0  0
 24 25  2  0  0  0
  6  1  1  0  0  0
 11  5  1  0  0  0
 19 14  1  0  0  0
 25 20  1  0  0  0
  9 12  1  0  0  0
  9 13  1  0  0  0
M  CHG 1   9   1
M  END
> <minimizedAffinity>
-7.22909

> <newdefault_CNNaffinity>
5.90857

> <newdefault_CNNscore>
0.909636

> <CNNaffinity_times_score>
5.374648

> <protein>
2xwd

$$$$
4239849


 23 25  0  0  0  0  0  0  0  0999 V2000
    4.2291   -9.3699   46.1455 C   0  0  0  0  0  0  0  0  0  0  0  0
    4.7715   -8.1346   45.9816 N   0  0  0  0  0  0  0  0  0  0  0  0
    5.7453   -7.8893   45.0639 C   0  0  0  0  0  0  0  0  0  0  0  0
    6.2120   -8.9102   44.2982 N   0  0  0  0  0  0  0  0  0  0  0  0
    5.7265  -10.1710   44.4259 C   0  0  0  0  0  0  0  0  0  0  0  0
    6.2424  -11.1994   43.6294 C   0  0  0  0  0  0  0  0  0  0  0  0
    5.7731  -12.5062   43.7827 C   0  0  0  0  0  0  0  0  0  0  0  0
    4.7956  -12.7924   44.7390 C   0  0  0  0  0  0  0  0  0  0  0  0
    4.2716  -11.7718   45.5384 C   0  0  0  0  0  0  0  0  0  0  0  0
    4.7166  -10.4458   45.3746 C   0  0  0  0  0  0  0  0  0  0  0  0
    6.3140   -6.5243   44.9367 C   0  0  0  0  0  0  0  0  0  0  0  0
    7.4866   -6.2098   45.6514 C   0  0  0  0  0  0  0  0  0  0  0  0
    8.0680   -4.9443   45.5485 C   0  0  0  0  0  0  0  0  0  0  0  0
    7.4868   -3.9714   44.7369 C   0  0  0  0  0  0  0  0  0  0  0  0
    6.3181   -4.2587   44.0310 C   0  0  0  0  0  0  0  0  0  0  0  0
    5.7227   -5.5237   44.1241 C   0  0  0  0  0  0  0  0  0  0  0  0
    4.2066   -5.7687   43.2603 Cl  0  0  0  0  0  0  0  0  0  0  0  0
    3.1808   -9.5349   47.1086 N   0  0  0  0  0  0  0  0  0  0  0  0
    2.4962  -10.2258   46.9558 H   0  0  0  0  0  0  0  0  0  0  0  0
    3.0974   -8.7076   48.3117 C   0  0  0  0  0  0  0  0  0  0  0  0
    4.0011   -9.2770   49.4063 C   0  0  0  0  0  0  0  0  0  0  0  0
    3.5151  -11.4006   50.2072 C   0  0  0  0  0  0  0  0  0  0  0  0
    3.2361  -10.0236   50.3340 O   0  0  0  0  0  0  0  0  0  0  0  0
 22 23  1  0  0  0
 23 21  1  0  0  0
 21 20  1  0  0  0
 20 18  1  0  0  0
 18  1  1  0  0  0
  1  2  2  0  0  0
  2  3  1  0  0  0
  3  4  2  0  0  0
  4  5  1  0  0  0
  5  6  2  0  0  0
  6  7  1  0  0  0
  7  8  2  0  0  0
  8  9  1  0  0  0
  9 10  2  0  0  0
  3 11  1  0  0  0
 11 12  2  0  0  0
 12 13  1  0  0  0
 13 14  2  0  0  0
 14 15  1  0  0  0
 15 16  2  0  0  0
 16 17  1  0  0  0
 10  1  1  0  0  0
 10  5  1  0  0  0
 16 11  1  0  0  0
 18 19  1  0  0  0
M  END
> <minimizedAffinity>
-5.21885

> <newdefault_CNNaffinity>
5.02946

> <newdefault_CNNscore>
0.445341

> <CNNaffinity_times_score>
2.2398248

> <protein>
3rik

$$$$
4239904


 29 32  0  0  0  0  0  0  0  0999 V2000
   35.5652   30.1346   -4.0737 C   0  0  0  0  0  0  0  0  0  0  0  0
   35.5874   30.7130   -2.8419 N   0  0  0  0  0  0  0  0  0  0  0  0
   34.6766   31.6454   -2.4577 C   0  0  0  0  0  0  0  0  0  0  0  0
   33.7049   32.0245   -3.3276 N   0  0  0  0  0  0  0  0  0  0  0  0
   33.6156   31.4837   -4.5687 C   0  0  0  0  0  0  0  0  0  0  0  0
   32.5900   31.8944   -5.4279 C   0  0  0  0  0  0  0  0  0  0  0  0
   32.4707   31.3283   -6.6978 C   0  0  0  0  0  0  0  0  0  0  0  0
   33.3691   30.3436   -7.1121 C   0  0  0  0  0  0  0  0  0  0  0  0
   34.3996   29.9254   -6.2643 C   0  0  0  0  0  0  0  0  0  0  0  0
   34.5467   30.5023   -4.9848 C   0  0  0  0  0  0  0  0  0  0  0  0
   34.7469   32.2456   -1.1034 C   0  0  0  0  0  0  0  0  0  0  0  0
   33.5977   32.7712   -0.4863 C   0  0  0  0  0  0  0  0  0  0  0  0
   33.6797   33.3343    0.7883 C   0  0  0  0  0  0  0  0  0  0  0  0
   34.9108   33.3704    1.4424 C   0  0  0  0  0  0  0  0  0  0  0  0
   36.0163   32.8603    0.8395 N   0  0  0  0  0  0  0  0  0  0  0  0
   35.9647   32.3059   -0.4012 C   0  0  0  0  0  0  0  0  0  0  0  0
   36.5894   29.1815   -4.4102 N   0  0  0  0  0  0  0  0  0  0  0  0
   36.5007   28.2482   -4.1097 H   0  0  0  0  0  0  0  0  0  0  0  0
   37.7609   29.5784   -5.1923 C   0  0  0  0  0  0  0  0  0  0  0  0
   38.0836   27.1920   -8.7855 C   0  0  0  0  0  0  0  0  0  0  0  0
   37.5755   26.6417   -7.6062 C   0  0  0  0  0  0  0  0  0  0  0  0
   37.4676   27.4157   -6.4504 C   0  0  0  0  0  0  0  0  0  0  0  0
   37.8592   28.7628   -6.4574 C   0  0  0  0  0  0  0  0  0  0  0  0
   38.3883   29.3299   -7.6341 C   0  0  0  0  0  0  0  0  0  0  0  0
   38.4918   28.5392   -8.7966 C   0  0  0  0  0  0  0  0  0  0  0  0
   39.1735   25.3817  -10.1246 C   0  0  0  0  0  0  0  0  0  0  0  0
   38.1687   26.3695   -9.9191 O   0  0  0  0  0  0  0  0  0  0  0  0
   38.8030   30.6725   -7.6108 O   0  0  0  0  0  0  0  0  0  0  0  0
   38.0254   31.7691   -8.0798 C   0  0  0  0  0  0  0  0  0  0  0  0
 26 27  1  0  0  0
 27 20  1  0  0  0
 20 21  2  0  0  0
 21 22  1  0  0  0
 22 23  2  0  0  0
 23 19  1  0  0  0
 19 17  1  0  0  0
 17  1  1  0  0  0
  1  2  2  0  0  0
  2  3  1  0  0  0
  3  4  2  0  0  0
  4  5  1  0  0  0
  5  6  2  0  0  0
  6  7  1  0  0  0
  7  8  2  0  0  0
  8  9  1  0  0  0
  9 10  2  0  0  0
  3 11  1  0  0  0
 11 12  2  0  0  0
 12 13  1  0  0  0
 13 14  2  0  0  0
 14 15  1  0  0  0
 15 16  2  0  0  0
 23 24  1  0  0  0
 24 28  1  0  0  0
 28 29  1  0  0  0
 24 25  2  0  0  0
 25 20  1  0  0  0
 10  1  1  0  0  0
 10  5  1  0  0  0
 16 11  1  0  0  0
 17 18  1  0  0  0
M  END
> <minimizedAffinity>
-7.39272

> <newdefault_CNNaffinity>
6.2907

> <newdefault_CNNscore>
0.54117

> <CNNaffinity_times_score>
3.4043381

> <protein>
2v3e

$$$$
4240091


 26 29  0  0  0  0  0  0  0  0999 V2000
    4.3628   -4.1640   42.5958 C   0  0  0  0  0  0  0  0  0  0  0  0
    3.9077   -5.4200   42.8391 N   0  0  0  0  0  0  0  0  0  0  0  0
    4.5438   -6.2811   43.6804 C   0  0  0  0  0  0  0  0  0  0  0  0
    5.7287   -5.8518   44.3297 C   0  0  0  0  0  0  0  0  0  0  0  0
    6.4879   -6.6660   45.1992 C   0  0  0  0  0  0  0  0  0  0  0  0
    7.6437   -6.1656   45.8077 C   0  0  0  0  0  0  0  0  0  0  0  0
    8.0598   -4.8572   45.5625 C   0  0  0  0  0  0  0  0  0  0  0  0
    7.3291   -4.0419   44.6970 C   0  0  0  0  0  0  0  0  0  0  0  0
    6.1732   -4.5310   44.0777 C   0  0  0  0  0  0  0  0  0  0  0  0
    5.4834   -3.7298   43.2277 N   0  0  0  0  0  0  0  0  0  0  0  0
    1.5408   -3.0313   43.5427 Cl  0  0  0  0  0  0  0  0  0  0  0  0
    2.3794   -2.6671   42.0362 C   0  0  0  0  0  0  0  0  0  0  0  0
    1.7403   -1.8006   41.1397 C   0  0  0  0  0  0  0  0  0  0  0  0
    2.3105   -1.5163   39.8990 C   0  0  0  0  0  0  0  0  0  0  0  0
    3.5250   -2.0970   39.5415 C   0  0  0  0  0  0  0  0  0  0  0  0
    4.1784   -2.9579   40.4256 C   0  0  0  0  0  0  0  0  0  0  0  0
    3.6242   -3.2516   41.6869 C   0  0  0  0  0  0  0  0  0  0  0  0
    3.9774   -7.5901   43.8852 N   0  0  0  0  0  0  0  0  0  0  0  0
    4.5008   -8.2752   44.3607 H   0  0  0  0  0  0  0  0  0  0  0  0
    2.6382   -7.9175   43.3985 C   0  0  0  0  0  0  0  0  0  0  0  0
    2.7070   -8.8341   42.2055 C   0  0  0  0  0  0  0  0  0  0  0  0
    2.1144   -8.4798   40.9858 C   0  0  0  0  0  0  0  0  0  0  0  0
    2.1895   -9.3492   39.8958 C   0  0  0  0  0  0  0  0  0  0  0  0
    2.8591  -10.5660   40.0344 C   0  0  0  0  0  0  0  0  0  0  0  0
    3.4272  -10.8970   41.2226 N   0  0  0  0  0  0  0  0  0  0  0  0
    3.3665  -10.0682   42.2993 C   0  0  0  0  0  0  0  0  0  0  0  0
 11 12  1  0  0  0
 12 13  2  0  0  0
 13 14  1  0  0  0
 14 15  2  0  0  0
 15 16  1  0  0  0
 16 17  2  0  0  0
 17  1  1  0  0  0
  1  2  2  0  0  0
  2  3  1  0  0  0
  3 18  1  0  0  0
 18 20  1  0  0  0
 20 21  1  0  0  0
 21 22  2  0  0  0
 22 23  1  0  0  0
 23 24  2  0  0  0
 24 25  1  0  0  0
 25 26  2  0  0  0
  3  4  2  0  0  0
  4  5  1  0  0  0
  5  6  2  0  0  0
  6  7  1  0  0  0
  7  8  2  0  0  0
  8  9  1  0  0  0
  9 10  2  0  0  0
 17 12  1  0  0  0
 10  1  1  0  0  0
 26 21  1  0  0  0
  9  4  1  0  0  0
 18 19  1  0  0  0
M  END
> <minimizedAffinity>
-7.06693

> <newdefault_CNNaffinity>
5.48307

> <newdefault_CNNscore>
0.325277

> <CNNaffinity_times_score>
1.7835165

> <protein>
3rik

$$$$
4247001


 33 36  0  0  0  0  0  0  0  0999 V2000
  -38.3520  -16.9095    6.4929 C   0  0  0  0  0  0  0  0  0  0  0  0
  -37.8923  -18.3029    6.1852 C   0  0  0  0  0  0  0  0  0  0  0  0
  -37.0775  -18.7206    5.1270 C   0  0  0  0  0  0  0  0  0  0  0  0
  -36.8957  -20.0284    5.1831 O   0  0  0  0  0  0  0  0  0  0  0  0
  -37.5512  -20.4807    6.2246 C   0  0  0  0  0  0  0  0  0  0  0  0
  -37.6336  -21.7985    6.6652 C   0  0  0  0  0  0  0  0  0  0  0  0
  -38.3987  -22.0626    7.8144 C   0  0  0  0  0  0  0  0  0  0  0  0
  -39.0614  -21.0117    8.4960 C   0  0  0  0  0  0  0  0  0  0  0  0
  -38.9590  -19.6880    8.0217 C   0  0  0  0  0  0  0  0  0  0  0  0
  -38.1882  -19.4592    6.8801 C   0  0  0  0  0  0  0  0  0  0  0  0
  -36.4800  -17.8716    4.0795 C   0  0  0  0  0  0  0  0  0  0  0  0
  -37.0290  -16.7834    3.7582 O   0  0  0  0  0  0  0  0  0  0  0  0
  -35.2828  -18.2947    3.4110 N   0  0  0  0  0  0  0  0  0  0  0  0
  -34.9062  -19.1784    3.6269 H   0  0  0  0  0  0  0  0  0  0  0  0
  -34.6012  -17.4609    2.4202 C   0  0  0  0  0  0  0  0  0  0  0  0
  -35.4193  -17.3727    1.1189 C   0  0  0  0  0  0  0  0  0  0  0  0
  -35.7933  -15.9713    0.7787 N   0  0  0  0  0  0  0  0  0  0  0  0
  -36.0882  -15.8239   -0.6637 C   0  0  0  0  0  0  0  0  0  0  0  0
  -34.8123  -15.9579   -1.5299 C   0  0  0  0  0  0  0  0  0  0  0  0
  -33.6141  -15.8103   -0.7864 O   0  0  0  0  0  0  0  0  0  0  0  0
  -33.7204  -14.7091    0.0895 C   0  0  0  0  0  0  0  0  0  0  0  0
  -34.7536  -14.9946    1.2006 C   0  0  0  0  0  0  0  0  0  0  0  0
  -36.6430  -15.7624    1.3028 H   0  0  0  0  0  0  0  0  0  0  0  0
  -40.0449  -21.3529    9.9179 S   0  0  0  0  0  0  0  0  0  0  0  0
  -40.8148  -22.6205    9.6714 O   0  0  0  0  0  0  0  0  0  0  0  0
  -41.0314  -20.2379   10.1327 O   0  0  0  0  0  0  0  0  0  0  0  0
  -39.0391  -21.5567   11.3344 N   0  0  0  0  0  0  0  0  0  0  0  0
  -37.7682  -20.8119   11.1826 C   0  0  0  0  0  0  0  0  0  0  0  0
  -36.6285  -21.3028   12.0984 C   0  0  0  0  0  0  0  0  0  0  0  0
  -36.0020  -22.6674   11.7104 C   0  0  0  0  0  0  0  0  0  0  0  0
  -36.6836  -23.4111   10.5472 C   0  0  0  0  0  0  0  0  0  0  0  0
  -38.1130  -23.8896   10.8549 C   0  0  0  0  0  0  0  0  0  0  0  0
  -38.9489  -22.9700   11.7663 C   0  0  0  0  0  0  0  0  0  0  0  0
  1  2  1  0  0  0
  2  3  2  0  0  0
  3  4  1  0  0  0
  4  5  1  0  0  0
  5  6  2  0  0  0
  6  7  1  0  0  0
  7  8  2  0  0  0
  8  9  1  0  0  0
  9 10  2  0  0  0
  8 24  1  0  0  0
 24 25  2  0  0  0
 24 26  2  0  0  0
 24 27  1  0  0  0
 27 28  1  0  0  0
 28 29  1  0  0  0
 29 30  1  0  0  0
 30 31  1  0  0  0
 31 32  1  0  0  0
 32 33  1  0  0  0
  3 11  1  0  0  0
 11 12  2  0  0  0
 11 13  1  0  0  0
 13 15  1  0  0  0
 15 16  1  0  0  0
 16 17  1  0  0  0
 17 18  1  0  0  0
 18 19  1  0  0  0
 19 20  1  0  0  0
 20 21  1  0  0  0
 21 22  1  0  0  0
 10  2  1  0  0  0
 10  5  1  0  0  0
 33 27  1  0  0  0
 22 17  1  0  0  0
 13 14  1  0  0  0
 17 23  1  0  0  0
M  CHG 1  17   1
M  END
> <minimizedAffinity>
-7.37389

> <newdefault_CNNaffinity>
6.27821

> <newdefault_CNNscore>
0.62005

> <CNNaffinity_times_score>
3.8928044

> <protein>
2xwe

$$$$
4247002


 31 34  0  0  0  0  0  0  0  0999 V2000
  -35.1315  -18.4811    5.7003 S   0  0  0  0  0  0  0  0  0  0  0  0
  -34.6063  -17.6383    6.8295 O   0  0  0  0  0  0  0  0  0  0  0  0
  -34.4326  -19.8120    5.7261 O   0  0  0  0  0  0  0  0  0  0  0  0
  -34.8024  -17.7029    4.1552 C   0  0  0  0  0  0  0  0  0  0  0  0
  -33.7353  -16.8041    4.0178 C   0  0  0  0  0  0  0  0  0  0  0  0
  -33.4922  -16.1782    2.7920 C   0  0  0  0  0  0  0  0  0  0  0  0
  -34.3168  -16.4451    1.6895 C   0  0  0  0  0  0  0  0  0  0  0  0
  -34.0949  -15.8425    0.4869 N   0  0  0  0  0  0  0  0  0  0  0  0
  -34.8977  -16.0959   -0.5827 C   0  0  0  0  0  0  0  0  0  0  0  0
  -34.6744  -15.5275   -1.6861 O   0  0  0  0  0  0  0  0  0  0  0  0
  -35.9660  -16.9942   -0.4513 C   0  0  0  0  0  0  0  0  0  0  0  0
  -36.7166  -17.2414   -1.4336 O   0  0  0  0  0  0  0  0  0  0  0  0
  -36.1932  -17.5991    0.7471 N   0  0  0  0  0  0  0  0  0  0  0  0
  -35.3962  -17.3454    1.8240 C   0  0  0  0  0  0  0  0  0  0  0  0
  -35.6331  -17.9693    3.0579 C   0  0  0  0  0  0  0  0  0  0  0  0
  -33.3426  -15.2147    0.3906 H   0  0  0  0  0  0  0  0  0  0  0  0
  -36.9443  -18.2293    0.8375 H   0  0  0  0  0  0  0  0  0  0  0  0
  -38.4746  -20.4939    7.4889 N   0  0  0  0  0  0  0  0  0  0  0  0
  -37.5411  -19.5764    8.1478 C   0  0  0  0  0  0  0  0  0  0  0  0
  -37.2929  -18.3523    7.2555 C   0  0  0  0  0  0  0  0  0  0  0  0
  -36.8545  -18.7034    5.8810 N   0  0  0  0  0  0  0  0  0  0  0  0
  -37.2353  -20.0603    5.4277 C   0  0  0  0  0  0  0  0  0  0  0  0
  -38.5673  -20.5157    6.0283 C   0  0  0  0  0  0  0  0  0  0  0  0
  -42.8373  -21.0983    9.7963 C   0  0  0  0  0  0  0  0  0  0  0  0
  -41.4812  -21.6125    9.4095 C   0  0  0  0  0  0  0  0  0  0  0  0
  -41.0751  -22.8843    9.8321 C   0  0  0  0  0  0  0  0  0  0  0  0
  -39.8200  -23.3809    9.4716 C   0  0  0  0  0  0  0  0  0  0  0  0
  -38.9519  -22.6163    8.6762 C   0  0  0  0  0  0  0  0  0  0  0  0
  -37.6094  -23.1795    8.2988 C   0  0  0  0  0  0  0  0  0  0  0  0
  -39.3460  -21.3218    8.2721 C   0  0  0  0  0  0  0  0  0  0  0  0
  -40.6122  -20.8353    8.6296 C   0  0  0  0  0  0  0  0  0  0  0  0
 24 25  1  0  0  0
 25 26  2  0  0  0
 26 27  1  0  0  0
 27 28  2  0  0  0
 28 29  1  0  0  0
 28 30  1  0  0  0
 30 31  2  0  0  0
 30 18  1  0  0  0
 18 19  1  0  0  0
 19 20  1  0  0  0
 20 21  1  0  0  0
 21 22  1  0  0  0
 22 23  1  0  0  0
 21  1  1  0  0  0
  1  2  2  0  0  0
  1  3  2  0  0  0
  1  4  1  0  0  0
  4  5  2  0  0  0
  5  6  1  0  0  0
  6  7  2  0  0  0
  7  8  1  0  0  0
  8  9  1  0  0  0
  9 10  2  0  0  0
  9 11  1  0  0  0
 11 12  2  0  0  0
 11 13  1  0  0  0
 13 14  1  0  0  0
 14 15  2  0  0  0
 31 25  1  0  0  0
 23 18  1  0  0  0
 15  4  1  0  0  0
 14  7  1  0  0  0
  8 16  1  0  0  0
 13 17  1  0  0  0
M  END
> <minimizedAffinity>
-9.23609

> <newdefault_CNNaffinity>
6.84484

> <newdefault_CNNscore>
0.766557

> <CNNaffinity_times_score>
5.2469597

> <protein>
2xwe

$$$$
4255757


 29 30  0  0  0  0  0  0  0  0999 V2000
   37.0374   30.8402   -6.4103 C   0  0  0  0  0  0  0  0  0  0  0  0
   35.8878   30.7961   -5.5930 C   0  0  0  0  0  0  0  0  0  0  0  0
   35.4451   31.9108   -4.8788 C   0  0  0  0  0  0  0  0  0  0  0  0
   36.1785   33.0993   -4.9466 C   0  0  0  0  0  0  0  0  0  0  0  0
   37.3048   33.2294   -5.7868 C   0  0  0  0  0  0  0  0  0  0  0  0
   37.6403   32.1216   -6.6180 C   0  0  0  0  0  0  0  0  0  0  0  0
   38.5291   32.3422   -7.6693 O   0  0  0  0  0  0  0  0  0  0  0  0
   38.9132   33.1886   -7.7883 H   0  0  0  0  0  0  0  0  0  0  0  0
   39.1143   29.3376   -6.6564 C   0  0  0  0  0  0  0  0  0  0  0  0
   37.6092   29.5178   -7.0068 C   0  0  0  0  0  0  0  0  0  0  0  0
   36.8927   28.2627   -6.4228 C   0  0  0  0  0  0  0  0  0  0  0  0
   37.4035   29.4934   -8.5371 C   0  0  0  0  0  0  0  0  0  0  0  0
   38.0802   34.5771   -5.8765 C   0  0  0  0  0  0  0  0  0  0  0  0
   39.3271   34.3984   -6.7673 C   0  0  0  0  0  0  0  0  0  0  0  0
   38.5085   35.0628   -4.4679 C   0  0  0  0  0  0  0  0  0  0  0  0
   37.2265   35.7199   -6.4905 C   0  0  0  0  0  0  0  0  0  0  0  0
   34.2178   31.8167   -4.0418 C   0  0  0  0  0  0  0  0  0  0  0  0
   32.7302   31.7841   -4.7391 S   0  0  0  0  0  0  0  0  0  0  0  0
   34.3153   31.6600   -2.6168 N   0  0  0  0  0  0  0  0  0  0  0  0
   33.4974   32.4756   -1.7204 C   0  0  0  0  0  0  0  0  0  0  0  0
   34.3398   32.9066   -0.5171 C   0  0  0  0  0  0  0  0  0  0  0  0
   34.9733   31.7392    0.1439 N   0  0  0  0  0  0  0  0  0  0  0  0
   35.8430   31.0146   -0.8147 C   0  0  0  0  0  0  0  0  0  0  0  0
   35.0503   30.5358   -2.0399 C   0  0  0  0  0  0  0  0  0  0  0  0
   34.2542   31.0881    0.4591 H   0  0  0  0  0  0  0  0  0  0  0  0
   35.7431   32.2075    1.3236 C   0  0  0  0  0  0  0  0  0  0  0  0
   37.0463   31.4184    1.5396 C   0  0  0  0  0  0  0  0  0  0  0  0
   36.8939   30.5174    2.6033 O   0  0  0  0  0  0  0  0  0  0  0  0
   36.6848   31.0069    3.4142 H   0  0  0  0  0  0  0  0  0  0  0  0
  9 10  1  0  0  0
 10 11  1  0  0  0
 10 12  1  0  0  0
 10  1  1  0  0  0
  1  2  2  0  0  0
  2  3  1  0  0  0
  3  4  2  0  0  0
  4  5  1  0  0  0
  5  6  2  0  0  0
  6  7  1  0  0  0
  5 13  1  0  0  0
 13 14  1  0  0  0
 13 15  1  0  0  0
 13 16  1  0  0  0
  3 17  1  0  0  0
 17 18  2  0  0  0
 17 19  1  0  0  0
 19 20  1  0  0  0
 20 21  1  0  0  0
 21 22  1  0  0  0
 22 26  1  0  0  0
 26 27  1  0  0  0
 27 28  1  0  0  0
 22 23  1  0  0  0
 23 24  1  0  0  0
  6  1  1  0  0  0
 24 19  1  0  0  0
  7  8  1  0  0  0
 22 25  1  0  0  0
 28 29  1  0  0  0
M  CHG 1  22   1
M  END
> <minimizedAffinity>
-6.79271

> <newdefault_CNNaffinity>
7.23641

> <newdefault_CNNscore>
0.905906

> <CNNaffinity_times_score>
6.5555077

> <protein>
2v3d

$$$$
4258504


 35 39  0  0  0  0  0  0  0  0999 V2000
  -32.7201  -16.5193    4.3580 C   0  0  0  0  0  0  0  0  0  0  0  0
  -33.9895  -17.2366    4.7325 C   0  0  0  0  0  0  0  0  0  0  0  0
  -33.9250  -18.2676    5.6845 C   0  0  0  0  0  0  0  0  0  0  0  0
  -35.0780  -18.9411    6.0884 C   0  0  0  0  0  0  0  0  0  0  0  0
  -36.3284  -18.5844    5.5653 C   0  0  0  0  0  0  0  0  0  0  0  0
  -36.3978  -17.5637    4.6057 C   0  0  0  0  0  0  0  0  0  0  0  0
  -35.2428  -16.8984    4.1638 C   0  0  0  0  0  0  0  0  0  0  0  0
  -37.5677  -19.2794    5.9838 C   0  0  0  0  0  0  0  0  0  0  0  0
  -38.3856  -19.9443    5.1329 N   0  0  0  0  0  0  0  0  0  0  0  0
  -39.4095  -20.4186    5.8405 N   0  0  0  0  0  0  0  0  0  0  0  0
  -39.2008  -20.0280    7.1127 C   0  0  0  0  0  0  0  0  0  0  0  0
  -40.0167  -20.2428    8.2208 C   0  0  0  0  0  0  0  0  0  0  0  0
  -41.2082  -20.9772    8.1411 C   0  0  0  0  0  0  0  0  0  0  0  0
  -41.9959  -21.1494    9.2808 C   0  0  0  0  0  0  0  0  0  0  0  0
  -41.5985  -20.5969   10.5009 C   0  0  0  0  0  0  0  0  0  0  0  0
  -40.4102  -19.8655   10.5940 C   0  0  0  0  0  0  0  0  0  0  0  0
  -39.5998  -19.6740    9.4567 C   0  0  0  0  0  0  0  0  0  0  0  0
  -38.3881  -18.9200    9.5002 C   0  0  0  0  0  0  0  0  0  0  0  0
  -37.8885  -18.2764   10.7604 C   0  0  0  0  0  0  0  0  0  0  0  0
  -37.6584  -18.7615    8.3570 N   0  0  0  0  0  0  0  0  0  0  0  0
  -38.0747  -19.3261    7.2272 N   0  0  0  0  0  0  0  0  0  0  0  0
  -35.4398  -15.5953    2.9742 S   0  0  0  0  0  0  0  0  0  0  0  0
  -36.9035  -15.4819    2.6508 O   0  0  0  0  0  0  0  0  0  0  0  0
  -34.9520  -14.2804    3.5162 O   0  0  0  0  0  0  0  0  0  0  0  0
  -34.5419  -15.9660    1.5186 N   0  0  0  0  0  0  0  0  0  0  0  0
  -34.5876  -14.8148    0.5936 C   0  0  0  0  0  0  0  0  0  0  0  0
  -34.0955  -15.2166   -0.8038 C   0  0  0  0  0  0  0  0  0  0  0  0
  -34.8966  -16.3227   -1.4093 N   0  0  0  0  0  0  0  0  0  0  0  0
  -35.7521  -17.0227   -0.4196 C   0  0  0  0  0  0  0  0  0  0  0  0
  -35.0085  -17.2353    0.9083 C   0  0  0  0  0  0  0  0  0  0  0  0
  -34.2123  -16.9925   -1.7609 H   0  0  0  0  0  0  0  0  0  0  0  0
  -35.7299  -15.8473   -2.5421 C   0  0  0  0  0  0  0  0  0  0  0  0
  -36.7886  -16.8823   -2.9592 C   0  0  0  0  0  0  0  0  0  0  0  0
  -37.9661  -16.2326   -3.3547 O   0  0  0  0  0  0  0  0  0  0  0  0
  -38.3112  -15.7096   -2.6142 H   0  0  0  0  0  0  0  0  0  0  0  0
  1  2  1  0  0  0
  2  3  2  0  0  0
  3  4  1  0  0  0
  4  5  2  0  0  0
  5  6  1  0  0  0
  6  7  2  0  0  0
  7 22  1  0  0  0
 22 23  2  0  0  0
 22 24  2  0  0  0
 22 25  1  0  0  0
 25 26  1  0  0  0
 26 27  1  0  0  0
 27 28  1  0  0  0
 28 32  1  0  0  0
 32 33  1  0  0  0
 33 34  1  0  0  0
 28 29  1  0  0  0
 29 30  1  0  0  0
  5  8  1  0  0  0
  8  9  2  0  0  0
  9 10  1  0  0  0
 10 11  2  0  0  0
 11 12  1  0  0  0
 12 13  2  0  0  0
 13 14  1  0  0  0
 14 15  2  0  0  0
 15 16  1  0  0  0
 16 17  2  0  0  0
 17 18  1  0  0  0
 18 19  1  0  0  0
 18 20  2  0  0  0
 20 21  1  0  0  0
  7  2  1  0  0  0
 30 25  1  0  0  0
 21  8  1  0  0  0
 21 11  1  0  0  0
 17 12  1  0  0  0
 28 31  1  0  0  0
 34 35  1  0  0  0
M  CHG 1  28   1
M  END
> <minimizedAffinity>
-9.60746

> <newdefault_CNNaffinity>
7.11747

> <newdefault_CNNscore>
0.775974

> <CNNaffinity_times_score>
5.522971

> <protein>
2xwd

$$$$
7964565


 32 34  0  0  0  0  0  0  0  0999 V2000
   35.1085   33.9049   -3.4071 C   0  0  0  0  0  0  0  0  0  0  0  0
   35.1697   35.2697   -3.7377 O   0  0  0  0  0  0  0  0  0  0  0  0
   35.6888   35.7417   -3.0679 H   0  0  0  0  0  0  0  0  0  0  0  0
   36.5306   33.3220   -3.4045 C   0  0  0  0  0  0  0  0  0  0  0  0
   40.0799   34.6346   -8.9811 C   0  0  0  0  0  0  0  0  0  0  0  0
   39.2324   34.1812   -7.8264 C   0  0  0  0  0  0  0  0  0  0  0  0
   39.1246   34.9981   -6.6744 C   0  0  0  0  0  0  0  0  0  0  0  0
   38.3385   34.5971   -5.5782 C   0  0  0  0  0  0  0  0  0  0  0  0
   37.6735   33.3693   -5.6571 C   0  0  0  0  0  0  0  0  0  0  0  0
   37.7731   32.5788   -6.7776 C   0  0  0  0  0  0  0  0  0  0  0  0
   38.5406   32.9501   -7.8816 C   0  0  0  0  0  0  0  0  0  0  0  0
   36.9959   31.4647   -6.5491 C   0  0  0  0  0  0  0  0  0  0  0  0
   36.7228   30.2990   -7.4472 C   0  0  0  0  0  0  0  0  0  0  0  0
   35.4726   29.5387   -6.9710 C   0  0  0  0  0  0  0  0  0  0  0  0
   35.5043   29.3010   -5.4511 C   0  0  0  0  0  0  0  0  0  0  0  0
   35.5358   30.6184   -4.6519 C   0  0  0  0  0  0  0  0  0  0  0  0
   36.4778   31.6120   -5.2739 C   0  0  0  0  0  0  0  0  0  0  0  0
   36.8737   32.7917   -4.7303 N   0  0  0  0  0  0  0  0  0  0  0  0
   34.3950   33.7417   -2.0437 C   0  0  0  0  0  0  0  0  0  0  0  0
   35.3472   33.5700   -0.9218 N   0  0  0  0  0  0  0  0  0  0  0  0
   35.3364   34.4251   -0.3659 H   0  0  0  0  0  0  0  0  0  0  0  0
   36.2519   33.3705   -1.3486 H   0  0  0  0  0  0  0  0  0  0  0  0
   35.0600   32.4221   -0.0082 C   0  0  0  0  0  0  0  0  0  0  0  0
   36.1840   32.2524    1.0607 C   0  0  0  0  0  0  0  0  0  0  0  0
   35.6908   31.6409    2.2239 O   0  0  0  0  0  0  0  0  0  0  0  0
   34.9935   32.1943    2.6093 H   0  0  0  0  0  0  0  0  0  0  0  0
   34.9108   31.0918   -0.8211 C   0  0  0  0  0  0  0  0  0  0  0  0
   35.5295   30.0109   -0.1722 O   0  0  0  0  0  0  0  0  0  0  0  0
   36.4786   30.1892   -0.0804 H   0  0  0  0  0  0  0  0  0  0  0  0
   33.7080   32.6951    0.7170 C   0  0  0  0  0  0  0  0  0  0  0  0
   33.7922   33.8299    1.5359 O   0  0  0  0  0  0  0  0  0  0  0  0
   34.4719   33.6898    2.2137 H   0  0  0  0  0  0  0  0  0  0  0  0
  5  6  1  0  0  0
  6  7  2  0  0  0
  7  8  1  0  0  0
  8  9  2  0  0  0
  9 10  1  0  0  0
 10 11  2  0  0  0
 10 12  1  0  0  0
 12 13  1  0  0  0
 13 14  1  0  0  0
 14 15  1  0  0  0
 15 16  1  0  0  0
 16 17  1  0  0  0
 17 18  1  0  0  0
 18  4  1  0  0  0
  4  1  1  0  0  0
  1  2  1  0  0  0
  1 19  1  0  0  0
 19 20  1  0  0  0
 20 23  1  0  0  0
 23 24  1  0  0  0
 24 25  1  0  0  0
 23 27  1  0  0  0
 27 28  1  0  0  0
 23 30  1  0  0  0
 30 31  1  0  0  0
 11  6  1  0  0  0
 18  9  1  0  0  0
 17 12  2  0  0  0
  2  3  1  0  0  0
 20 21  1  0  0  0
 20 22  1  0  0  0
 25 26  1  0  0  0
 28 29  1  0  0  0
 31 32  1  0  0  0
M  CHG 1  20   1
M  END
> <minimizedAffinity>
-7.63659

> <newdefault_CNNaffinity>
6.82818

> <newdefault_CNNscore>
0.935058

> <CNNaffinity_times_score>
6.384744

> <protein>
2v3d

$$$$
7966473


 32 34  0  0  0  0  0  0  0  0999 V2000
   34.9969   30.7366   -4.8108 N   0  0  0  0  0  0  0  0  0  0  0  0
   37.6366   28.7204   -7.4724 C   0  0  0  0  0  0  0  0  0  0  0  0
   36.3436   28.2335   -7.2498 C   0  0  0  0  0  0  0  0  0  0  0  0
   35.4783   28.8885   -6.3699 C   0  0  0  0  0  0  0  0  0  0  0  0
   35.8936   30.0484   -5.6995 C   0  0  0  0  0  0  0  0  0  0  0  0
   37.1872   30.5427   -5.9230 C   0  0  0  0  0  0  0  0  0  0  0  0
   38.0532   29.8876   -6.8033 C   0  0  0  0  0  0  0  0  0  0  0  0
   38.4617   28.0231   -8.3703 O   0  0  0  0  0  0  0  0  0  0  0  0
   40.8865   27.8885   -8.5189 C   0  0  0  0  0  0  0  0  0  0  0  0
   39.6123   28.5561   -9.0267 C   0  0  0  0  0  0  0  0  0  0  0  0
   34.1361   32.1419   -5.3704 S   0  0  0  0  0  0  0  0  0  0  0  0
   32.8666   32.3125   -4.5839 O   0  0  0  0  0  0  0  0  0  0  0  0
   33.7714   31.9470   -6.8152 O   0  0  0  0  0  0  0  0  0  0  0  0
   35.1481   33.5865   -5.1417 C   0  0  0  0  0  0  0  0  0  0  0  0
   35.1271   34.3136   -3.9288 C   0  0  0  0  0  0  0  0  0  0  0  0
   34.2277   33.9440   -2.7852 C   0  0  0  0  0  0  0  0  0  0  0  0
   35.9292   35.4023   -3.7864 N   0  0  0  0  0  0  0  0  0  0  0  0
   36.7630   35.8032   -4.7765 C   0  0  0  0  0  0  0  0  0  0  0  0
   37.5696   36.9180   -4.5955 O   0  0  0  0  0  0  0  0  0  0  0  0
   36.8105   35.1153   -5.9427 N   0  0  0  0  0  0  0  0  0  0  0  0
   36.0313   34.0233   -6.1481 C   0  0  0  0  0  0  0  0  0  0  0  0
   36.1292   33.3529   -7.3607 O   0  0  0  0  0  0  0  0  0  0  0  0
   34.7348   30.2216   -3.4644 C   0  0  0  0  0  0  0  0  0  0  0  0
   35.7083   30.8130   -2.4918 C   0  0  0  0  0  0  0  0  0  0  0  0
   36.6795   31.4941   -2.9193 O   0  0  0  0  0  0  0  0  0  0  0  0
   35.5243   30.6138   -1.0832 N   0  0  0  0  0  0  0  0  0  0  0  0
   34.7878   30.0381   -0.7746 H   0  0  0  0  0  0  0  0  0  0  0  0
   36.4004   31.2419   -0.0893 C   0  0  0  0  0  0  0  0  0  0  0  0
   36.9391   30.2239    0.9091 C   0  0  0  0  0  0  0  0  0  0  0  0
   37.1407   30.9839    2.2184 C   0  0  0  0  0  0  0  0  0  0  0  0
   36.4413   32.3332    2.0632 C   0  0  0  0  0  0  0  0  0  0  0  0
   35.6577   32.2628    0.7623 C   0  0  0  0  0  0  0  0  0  0  0  0
  9 10  1  0  0  0
 10  8  1  0  0  0
  8  2  1  0  0  0
  2  3  2  0  0  0
  3  4  1  0  0  0
  4  5  2  0  0  0
  5  6  1  0  0  0
  6  7  2  0  0  0
  5  1  1  0  0  0
  1 23  1  0  0  0
 23 24  1  0  0  0
 24 25  2  0  0  0
 24 26  1  0  0  0
 26 28  1  0  0  0
 28 29  1  0  0  0
 29 30  1  0  0  0
 30 31  1  0  0  0
 31 32  1  0  0  0
  1 11  1  0  0  0
 11 12  2  0  0  0
 11 13  2  0  0  0
 11 14  1  0  0  0
 14 15  2  0  0  0
 15 16  1  0  0  0
 15 17  1  0  0  0
 17 18  2  0  0  0
 18 19  1  0  0  0
 18 20  1  0  0  0
 20 21  2  0  0  0
 21 22  1  0  0  0
  7  2  1  0  0  0
 32 28  1  0  0  0
 21 14  1  0  0  0
 26 27  1  0  0  0
M  CHG 1  19  -1
M  CHG 1  22  -1
M  END
> <minimizedAffinity>
-7.52215

> <newdefault_CNNaffinity>
6.04226

> <newdefault_CNNscore>
0.168835

> <CNNaffinity_times_score>
1.0201449

> <protein>
2v3e

$$$$
7968420


 29 32  0  0  0  0  0  0  0  0999 V2000
  -33.0852  -15.7187    6.2557 C   0  0  0  0  0  0  0  0  0  0  0  0
  -32.8865  -14.5566    5.4924 C   0  0  0  0  0  0  0  0  0  0  0  0
  -33.2795  -14.5153    4.1540 C   0  0  0  0  0  0  0  0  0  0  0  0
  -33.8887  -15.6259    3.5634 C   0  0  0  0  0  0  0  0  0  0  0  0
  -34.2634  -15.5685    2.2597 N   0  0  0  0  0  0  0  0  0  0  0  0
  -34.8641  -16.6093    1.6232 C   0  0  0  0  0  0  0  0  0  0  0  0
  -35.1207  -17.7911    2.3388 C   0  0  0  0  0  0  0  0  0  0  0  0
  -34.7504  -17.8973    3.6892 C   0  0  0  0  0  0  0  0  0  0  0  0
  -35.0409  -19.1786    4.4288 C   0  0  0  0  0  0  0  0  0  0  0  0
  -34.1202  -16.7981    4.3195 C   0  0  0  0  0  0  0  0  0  0  0  0
  -33.7196  -16.8257    5.6716 C   0  0  0  0  0  0  0  0  0  0  0  0
  -35.2337  -16.4737    0.2333 N   0  0  0  0  0  0  0  0  0  0  0  0
  -36.2715  -17.3508   -0.3242 C   0  0  0  0  0  0  0  0  0  0  0  0
  -36.9663  -16.6664   -1.5045 C   0  0  0  0  0  0  0  0  0  0  0  0
  -36.0177  -16.1992   -2.4429 O   0  0  0  0  0  0  0  0  0  0  0  0
  -35.2408  -15.1728   -1.8582 C   0  0  0  0  0  0  0  0  0  0  0  0
  -34.3926  -15.7188   -0.7053 C   0  0  0  0  0  0  0  0  0  0  0  0
  -31.4365  -16.2514    8.1116 C   0  0  0  0  0  0  0  0  0  0  0  0
  -30.6067  -16.7344    7.2932 O   0  0  0  0  0  0  0  0  0  0  0  0
  -32.7122  -15.7738    7.6433 N   0  0  0  0  0  0  0  0  0  0  0  0
  -33.3666  -15.4673    8.3120 H   0  0  0  0  0  0  0  0  0  0  0  0
  -31.7641  -16.2461   11.8972 C   0  0  0  0  0  0  0  0  0  0  0  0
  -30.4305  -16.0773   12.2823 C   0  0  0  0  0  0  0  0  0  0  0  0
  -29.4260  -15.9587   11.3208 C   0  0  0  0  0  0  0  0  0  0  0  0
  -29.7429  -16.0141    9.9618 C   0  0  0  0  0  0  0  0  0  0  0  0
  -31.0752  -16.1965    9.5490 C   0  0  0  0  0  0  0  0  0  0  0  0
  -32.0832  -16.3010   10.5259 C   0  0  0  0  0  0  0  0  0  0  0  0
  -32.6863  -17.2886   13.9754 C   0  0  0  0  0  0  0  0  0  0  0  0
  -32.7374  -16.3544   12.9019 O   0  0  0  0  0  0  0  0  0  0  0  0
 28 29  1  0  0  0
 29 22  1  0  0  0
 22 23  2  0  0  0
 23 24  1  0  0  0
 24 25  2  0  0  0
 25 26  1  0  0  0
 26 27  2  0  0  0
 26 18  1  0  0  0
 18 19  2  0  0  0
 18 20  1  0  0  0
 20  1  1  0  0  0
  1  2  2  0  0  0
  2  3  1  0  0  0
  3  4  2  0  0  0
  4  5  1  0  0  0
  5  6  2  0  0  0
  6  7  1  0  0  0
  7  8  2  0  0  0
  8  9  1  0  0  0
  8 10  1  0  0  0
 10 11  2  0  0  0
  6 12  1  0  0  0
 12 13  1  0  0  0
 13 14  1  0  0  0
 14 15  1  0  0  0
 15 16  1  0  0  0
 16 17  1  0  0  0
 27 22  1  0  0  0
 11  1  1  0  0  0
 10  4  1  0  0  0
 17 12  1  0  0  0
 20 21  1  0  0  0
M  END
> <minimizedAffinity>
-7.52395

> <newdefault_CNNaffinity>
5.8024

> <newdefault_CNNscore>
0.502837

> <CNNaffinity_times_score>
2.9176614

> <protein>
2xwe

$$$$
11113400


 20 21  0  0  0  0  0  0  0  0999 V2000
   -0.7824   -3.1590   27.4289 C   0  0  0  0  0  0  0  0  0  0  0  0
   -0.0669   -2.9257   28.6156 C   0  0  0  0  0  0  0  0  0  0  0  0
    1.1795   -2.2874   28.5876 C   0  0  0  0  0  0  0  0  0  0  0  0
    1.8803   -2.0715   29.7372 N   0  0  0  0  0  0  0  0  0  0  0  0
    3.0952   -1.4578   29.7129 C   0  0  0  0  0  0  0  0  0  0  0  0
    3.7263   -1.2674   30.7878 O   0  0  0  0  0  0  0  0  0  0  0  0
    3.6363   -1.0415   28.4893 C   0  0  0  0  0  0  0  0  0  0  0  0
    4.7604   -0.4712   28.4494 O   0  0  0  0  0  0  0  0  0  0  0  0
    2.9412   -1.2555   27.3386 N   0  0  0  0  0  0  0  0  0  0  0  0
    1.7245   -1.8707   27.3573 C   0  0  0  0  0  0  0  0  0  0  0  0
    1.0087   -2.0824   26.1723 C   0  0  0  0  0  0  0  0  0  0  0  0
   -0.2512   -2.7062   26.1947 C   0  0  0  0  0  0  0  0  0  0  0  0
    1.5020   -2.3638   30.5978 H   0  0  0  0  0  0  0  0  0  0  0  0
    3.3228   -0.9616   26.4799 H   0  0  0  0  0  0  0  0  0  0  0  0
   -3.2166   -3.2514   27.3491 O   0  0  0  0  0  0  0  0  0  0  0  0
   -2.0119   -3.9009   27.4913 N   0  0  0  0  0  0  0  0  0  0  0  0
   -2.0109   -5.0919   27.8652 O   0  0  0  0  0  0  0  0  0  0  0  0
   -1.0003   -2.8184   24.9729 N   0  0  0  0  0  0  0  0  0  0  0  0
   -0.8878   -3.8359   24.2580 O   0  0  0  0  0  0  0  0  0  0  0  0
   -1.6816   -1.7306   24.4771 O   0  0  0  0  0  0  0  0  0  0  0  0
 15 16  1  0  0  0
 16 17  2  0  0  0
 16  1  1  0  0  0
  1  2  2  0  0  0
  2  3  1  0  0  0
  3  4  1  0  0  0
  4  5  1  0  0  0
  5  6  2  0  0  0
  5  7  1  0  0  0
  7  8  2  0  0  0
  7  9  1  0  0  0
  9 10  1  0  0  0
 10 11  1  0  0  0
 11 12  2  0  0  0
 12 18  1  0  0  0
 18 19  2  0  0  0
 18 20  1  0  0  0
 12  1  1  0  0  0
 10  3  2  0  0  0
  4 13  1  0  0  0
  9 14  1  0  0  0
M  CHG 1  15  -1
M  CHG 1  16   1
M  CHG 1  18   1
M  CHG 1  20  -1
M  END
> <minimizedAffinity>
-6.45805

> <newdefault_CNNaffinity>
4.43852

> <newdefault_CNNscore>
0.46798

> <CNNaffinity_times_score>
2.0771387

> <protein>
3rik

$$$$
11113401


 19 20  0  0  0  0  0  0  0  0999 V2000
  -33.7669  -16.5393    3.3735 C   0  0  0  0  0  0  0  0  0  0  0  0
  -33.5473  -15.6034    2.3451 C   0  0  0  0  0  0  0  0  0  0  0  0
  -34.1689  -15.7471    1.0973 C   0  0  0  0  0  0  0  0  0  0  0  0
  -33.9493  -14.8445    0.0991 N   0  0  0  0  0  0  0  0  0  0  0  0
  -34.5503  -14.9811   -1.1147 C   0  0  0  0  0  0  0  0  0  0  0  0
  -34.3334  -14.1349   -2.0240 O   0  0  0  0  0  0  0  0  0  0  0  0
  -35.4084  -16.0649   -1.3444 C   0  0  0  0  0  0  0  0  0  0  0  0
  -35.9733  -16.2058   -2.4630 O   0  0  0  0  0  0  0  0  0  0  0  0
  -35.6312  -16.9689   -0.3515 N   0  0  0  0  0  0  0  0  0  0  0  0
  -35.0311  -16.8372    0.8657 C   0  0  0  0  0  0  0  0  0  0  0  0
  -35.2651  -17.7671    1.8862 C   0  0  0  0  0  0  0  0  0  0  0  0
  -34.6447  -17.6258    3.1354 C   0  0  0  0  0  0  0  0  0  0  0  0
  -33.3468  -14.0823    0.2586 H   0  0  0  0  0  0  0  0  0  0  0  0
  -36.2348  -17.7294   -0.5147 H   0  0  0  0  0  0  0  0  0  0  0  0
  -31.7272  -16.4309    4.7307 O   0  0  0  0  0  0  0  0  0  0  0  0
  -33.0985  -16.3669    4.6397 N   0  0  0  0  0  0  0  0  0  0  0  0
  -33.7492  -16.0413    5.6545 O   0  0  0  0  0  0  0  0  0  0  0  0
  -34.9684  -18.5836    4.1647 C   0  0  0  0  0  0  0  0  0  0  0  0
  -35.2298  -19.3542    4.9877 N   0  0  0  0  0  0  0  0  0  0  0  0
 15 16  1  0  0  0
 16 17  2  0  0  0
 16  1  1  0  0  0
  1  2  2  0  0  0
  2  3  1  0  0  0
  3  4  1  0  0  0
  4  5  1  0  0  0
  5  6  2  0  0  0
  5  7  1  0  0  0
  7  8  2  0  0  0
  7  9  1  0  0  0
  9 10  1  0  0  0
 10 11  1  0  0  0
 11 12  2  0  0  0
 12 18  1  0  0  0
 18 19  3  0  0  0
 12  1  1  0  0  0
 10  3  2  0  0  0
  4 13  1  0  0  0
  9 14  1  0  0  0
M  CHG 1  15  -1
M  CHG 1  16   1
M  END
> <minimizedAffinity>
-7.08348

> <newdefault_CNNaffinity>
5.40895

> <newdefault_CNNscore>
0.590576

> <CNNaffinity_times_score>
3.194396

> <protein>
2xwe

$$$$
11113579


 25 28  0  0  0  0  0  0  0  0999 V2000
  -27.6114  -17.2086    6.0727 C   0  0  0  0  0  0  0  0  0  0  0  0
  -27.7179  -17.0789    7.4560 C   0  0  0  0  0  0  0  0  0  0  0  0
  -26.6070  -17.3071    8.2644 C   0  0  0  0  0  0  0  0  0  0  0  0
  -25.3816  -17.6921    7.7051 C   0  0  0  0  0  0  0  0  0  0  0  0
  -23.9952  -17.8554    8.8319 S   0  0  0  0  0  0  0  0  0  0  0  0
  -23.2605  -16.3784    8.1361 C   0  0  0  0  0  0  0  0  0  0  0  0
  -23.3616  -15.1516    8.8012 C   0  0  0  0  0  0  0  0  0  0  0  0
  -22.8615  -13.9914    8.2031 C   0  0  0  0  0  0  0  0  0  0  0  0
  -22.2759  -14.0533    6.9348 C   0  0  0  0  0  0  0  0  0  0  0  0
  -22.1855  -15.2761    6.2617 C   0  0  0  0  0  0  0  0  0  0  0  0
  -22.6724  -16.4479    6.8623 C   0  0  0  0  0  0  0  0  0  0  0  0
  -22.6030  -17.7755    6.1492 C   0  0  0  0  0  0  0  0  0  0  0  0
  -23.9602  -18.2469    5.5558 C   0  0  0  0  0  0  0  0  0  0  0  0
  -25.2581  -17.8453    6.2927 C   0  0  0  0  0  0  0  0  0  0  0  0
  -26.3940  -17.5828    5.4984 C   0  0  0  0  0  0  0  0  0  0  0  0
  -23.8875  -19.7047    5.2590 N   0  0  0  0  0  0  0  0  0  0  0  0
  -24.2969  -20.0640    3.8868 C   0  0  0  0  0  0  0  0  0  0  0  0
  -24.3867  -21.5912    3.7513 C   0  0  0  0  0  0  0  0  0  0  0  0
  -23.1255  -22.2683    4.1296 N   0  0  0  0  0  0  0  0  0  0  0  0
  -22.0908  -22.1406    3.0848 C   0  0  0  0  0  0  0  0  0  0  0  0
  -22.6393  -21.8207    5.4544 C   0  0  0  0  0  0  0  0  0  0  0  0
  -22.5705  -20.2905    5.5682 C   0  0  0  0  0  0  0  0  0  0  0  0
  -23.3344  -23.2634    4.2102 H   0  0  0  0  0  0  0  0  0  0  0  0
  -28.1172  -17.1706    3.4841 C   0  0  0  0  0  0  0  0  0  0  0  0
  -29.0367  -16.8946    5.0299 S   0  0  0  0  0  0  0  0  0  0  0  0
 24 25  1  0  0  0
 25  1  1  0  0  0
  1  2  2  0  0  0
  2  3  1  0  0  0
  3  4  2  0  0  0
  4  5  1  0  0  0
  5  6  1  0  0  0
  6  7  2  0  0  0
  7  8  1  0  0  0
  8  9  2  0  0  0
  9 10  1  0  0  0
 10 11  2  0  0  0
 11 12  1  0  0  0
 12 13  1  0  0  0
 13 16  1  0  0  0
 16 17  1  0  0  0
 17 18  1  0  0  0
 18 19  1  0  0  0
 19 20  1  0  0  0
 19 21  1  0  0  0
 21 22  1  0  0  0
 13 14  1  0  0  0
 14 15  2  0  0  0
 15  1  1  0  0  0
 14  4  1  0  0  0
 11  6  1  0  0  0
 22 16  1  0  0  0
 19 23  1  0  0  0
M  CHG 1  19   1
M  END
> <minimizedAffinity>
-6.61033

> <newdefault_CNNaffinity>
5.69517

> <newdefault_CNNscore>
0.484191

> <CNNaffinity_times_score>
2.75755

> <protein>
2xwd

$$$$
11113687


 18 19  0  0  0  0  0  0  0  0999 V2000
    4.0928   -4.2839   42.8936 O   0  0  0  0  0  0  0  0  0  0  0  0
    5.0615   -3.3182   43.2136 C   0  0  0  0  0  0  0  0  0  0  0  0
    4.4516   -2.2506   44.1265 C   0  0  0  0  0  0  0  0  0  0  0  0
    4.9587   -2.5686   45.5391 C   0  0  0  0  0  0  0  0  0  0  0  0
    5.6699   -3.8525   45.4557 N   0  0  0  0  0  0  0  0  0  0  0  0
    6.7700   -4.0050   46.4360 C   0  0  0  0  0  0  0  0  0  0  0  0
    7.7778   -5.1212   46.0230 C   0  0  0  0  0  0  0  0  0  0  0  0
    8.9432   -4.5477   45.4857 O   0  0  0  0  0  0  0  0  0  0  0  0
    7.1653   -6.0941   44.9851 C   0  0  0  0  0  0  0  0  0  0  0  0
    8.1048   -7.0724   44.6159 O   0  0  0  0  0  0  0  0  0  0  0  0
    6.6372   -5.3553   43.7221 C   0  0  0  0  0  0  0  0  0  0  0  0
    7.6454   -5.2889   42.7453 O   0  0  0  0  0  0  0  0  0  0  0  0
    6.1677   -3.9173   44.0807 C   0  0  0  0  0  0  0  0  0  0  0  0
    3.4030   -3.8803   42.3440 H   0  0  0  0  0  0  0  0  0  0  0  0
    5.0381   -4.6186   45.6887 H   0  0  0  0  0  0  0  0  0  0  0  0
    8.7180   -4.0463   44.6864 H   0  0  0  0  0  0  0  0  0  0  0  0
    8.8656   -6.6461   44.1912 H   0  0  0  0  0  0  0  0  0  0  0  0
    8.4012   -4.7908   43.0939 H   0  0  0  0  0  0  0  0  0  0  0  0
  2  1  1  0  0  0
  2  3  1  0  0  0
  3  4  1  0  0  0
  5  4  1  0  0  0
  5  6  1  0  0  0
  6  7  1  0  0  0
  7  8  1  0  0  0
  7  9  1  0  0  0
  9 10  1  0  0  0
  9 11  1  0  0  0
 11 12  1  0  0  0
 11 13  1  0  0  0
 13  2  1  0  0  0
 13  5  1  0  0  0
  1 14  1  0  0  0
  5 15  1  0  0  0
  8 16  1  0  0  0
 10 17  1  0  0  0
 12 18  1  0  0  0
M  CHG 1   5   1
M  END
> <minimizedAffinity>
-5.12399

> <newdefault_CNNaffinity>
3.16238

> <newdefault_CNNscore>
0.323494

> <CNNaffinity_times_score>
1.0230108

> <protein>
3rik

$$$$
11113787


 25 28  0  0  0  0  0  0  0  0999 V2000
  -22.5989  -21.3447    4.8038 C   0  0  0  0  0  0  0  0  0  0  0  0
  -22.4419  -22.8319    5.0367 C   0  0  0  0  0  0  0  0  0  0  0  0
  -22.0496  -23.3435    6.2913 C   0  0  0  0  0  0  0  0  0  0  0  0
  -21.8971  -24.7207    6.4764 C   0  0  0  0  0  0  0  0  0  0  0  0
  -22.1260  -25.6011    5.4139 C   0  0  0  0  0  0  0  0  0  0  0  0
  -21.9330  -27.3287    5.6501 Cl  0  0  0  0  0  0  0  0  0  0  0  0
  -22.5004  -25.1027    4.1610 C   0  0  0  0  0  0  0  0  0  0  0  0
  -22.6523  -23.7264    3.9707 C   0  0  0  0  0  0  0  0  0  0  0  0
  -21.2536  -20.6674    4.9532 C   0  0  0  0  0  0  0  0  0  0  0  0
  -20.1183  -21.1794    4.2988 C   0  0  0  0  0  0  0  0  0  0  0  0
  -18.8765  -20.5545    4.4461 C   0  0  0  0  0  0  0  0  0  0  0  0
  -18.7564  -19.4152    5.2442 C   0  0  0  0  0  0  0  0  0  0  0  0
  -19.8779  -18.8996    5.8979 C   0  0  0  0  0  0  0  0  0  0  0  0
  -21.1222  -19.5211    5.7543 C   0  0  0  0  0  0  0  0  0  0  0  0
  -23.5236  -20.8020    5.7334 O   0  0  0  0  0  0  0  0  0  0  0  0
  -27.6073  -17.7061    4.7556 C   0  0  0  0  0  0  0  0  0  0  0  0
  -26.8263  -18.9480    4.9240 N   0  0  0  0  0  0  0  0  0  0  0  0
  -26.2278  -19.0614    6.2613 C   0  0  0  0  0  0  0  0  0  0  0  0
  -24.9791  -18.1614    6.2397 C   0  0  0  0  0  0  0  0  0  0  0  0
  -24.5837  -18.1098    4.7628 C   0  0  0  0  0  0  0  0  0  0  0  0
  -25.6357  -18.9879    4.0630 C   0  0  0  0  0  0  0  0  0  0  0  0
  -25.1490  -20.4600    3.9803 C   0  0  0  0  0  0  0  0  0  0  0  0
  -24.8688  -21.0834    5.3783 C   0  0  0  0  0  0  0  0  0  0  0  0
  -25.8249  -20.5438    6.4855 C   0  0  0  0  0  0  0  0  0  0  0  0
  -27.5081  -19.6775    4.7158 H   0  0  0  0  0  0  0  0  0  0  0  0
 16 17  1  0  0  0
 17 18  1  0  0  0
 18 19  1  0  0  0
 19 20  1  0  0  0
 21 20  1  0  0  0
 21 22  1  0  0  0
 22 23  1  0  0  0
 23 24  1  0  0  0
 23 15  1  0  0  0
  1 15  1  0  0  0
  1  9  1  0  0  0
  9 10  2  0  0  0
 10 11  1  0  0  0
 11 12  2  0  0  0
 12 13  1  0  0  0
 13 14  2  0  0  0
  1  2  1  0  0  0
  2  3  2  0  0  0
  3  4  1  0  0  0
  4  5  2  0  0  0
  5  6  1  0  0  0
  5  7  1  0  0  0
  7  8  2  0  0  0
 21 17  1  0  0  0
 24 18  1  0  0  0
 14  9  1  0  0  0
  8  2  1  0  0  0
 17 25  1  0  0  0
M  CHG 1  17   1
M  END
> <minimizedAffinity>
-7.58729

> <newdefault_CNNaffinity>
5.33561

> <newdefault_CNNscore>
0.417045

> <CNNaffinity_times_score>
2.2251894

> <protein>
2xwe

$$$$
14723501


 29 31  0  0  0  0  0  0  0  0999 V2000
   33.5660   30.5776   -6.4908 S   0  0  0  0  0  0  0  0  0  0  0  0
   34.7937   29.9271   -3.5155 C   0  0  0  0  0  0  0  0  0  0  0  0
   34.1710   31.2162   -3.8349 N   0  0  0  0  0  0  0  0  0  0  0  0
   33.5459   31.5550   -4.9818 C   0  0  0  0  0  0  0  0  0  0  0  0
   32.9584   32.7606   -4.8883 N   0  0  0  0  0  0  0  0  0  0  0  0
   33.1931   33.2113   -3.6655 N   0  0  0  0  0  0  0  0  0  0  0  0
   33.9286   32.2783   -3.0268 C   0  0  0  0  0  0  0  0  0  0  0  0
   34.4319   32.4688   -1.6494 C   0  0  0  0  0  0  0  0  0  0  0  0
   35.8056   32.6092   -1.3723 C   0  0  0  0  0  0  0  0  0  0  0  0
   36.2481   32.8029   -0.0561 C   0  0  0  0  0  0  0  0  0  0  0  0
   35.3264   32.8870    0.9921 C   0  0  0  0  0  0  0  0  0  0  0  0
   35.7814   33.0882    2.2930 O   0  0  0  0  0  0  0  0  0  0  0  0
   33.9539   32.7770    0.7214 C   0  0  0  0  0  0  0  0  0  0  0  0
   33.5110   32.5821   -0.5934 C   0  0  0  0  0  0  0  0  0  0  0  0
   36.7002   33.1602    2.4621 H   0  0  0  0  0  0  0  0  0  0  0  0
   35.1613   31.2612   -7.0814 C   0  0  0  0  0  0  0  0  0  0  0  0
   36.2360   30.1995   -7.1570 C   0  0  0  0  0  0  0  0  0  0  0  0
   37.0633   30.1252   -6.2632 O   0  0  0  0  0  0  0  0  0  0  0  0
   36.3122   29.2159   -8.2968 C   0  0  0  0  0  0  0  0  0  0  0  0
   37.5495   28.3581   -8.2673 C   0  0  0  0  0  0  0  0  0  0  0  0
   37.4305   27.1146   -8.0902 O   0  0  0  0  0  0  0  0  0  0  0  0
   38.8489   28.9179   -8.5064 N   0  0  0  0  0  0  0  0  0  0  0  0
   39.0845   29.7595   -8.0533 H   0  0  0  0  0  0  0  0  0  0  0  0
   39.8266   28.3137   -9.3744 C   0  0  0  0  0  0  0  0  0  0  0  0
   40.9600   27.6521   -8.8586 C   0  0  0  0  0  0  0  0  0  0  0  0
   41.8802   27.0492   -9.7246 C   0  0  0  0  0  0  0  0  0  0  0  0
   41.6809   27.0909  -11.1091 C   0  0  0  0  0  0  0  0  0  0  0  0
   40.5503   27.7263  -11.6286 C   0  0  0  0  0  0  0  0  0  0  0  0
   39.6218   28.3329  -10.7652 C   0  0  0  0  0  0  0  0  0  0  0  0
  2  3  1  0  0  0
  3  4  1  0  0  0
  4  1  1  0  0  0
  1 16  1  0  0  0
 16 17  1  0  0  0
 17 18  2  0  0  0
 17 19  1  0  0  0
 19 20  1  0  0  0
 20 21  2  0  0  0
 20 22  1  0  0  0
 22 24  1  0  0  0
 24 25  2  0  0  0
 25 26  1  0  0  0
 26 27  2  0  0  0
 27 28  1  0  0  0
 28 29  2  0  0  0
  4  5  2  0  0  0
  5  6  1  0  0  0
  6  7  2  0  0  0
  7  8  1  0  0  0
  8  9  2  0  0  0
  9 10  1  0  0  0
 10 11  2  0  0  0
 11 12  1  0  0  0
 11 13  1  0  0  0
 13 14  2  0  0  0
  7  3  1  0  0  0
 29 24  1  0  0  0
 14  8  1  0  0  0
 22 23  1  0  0  0
 12 15  1  0  0  0
M  END
> <minimizedAffinity>
-7.06628

> <newdefault_CNNaffinity>
5.9153

> <newdefault_CNNscore>
0.614636

> <CNNaffinity_times_score>
3.6357563

> <protein>
2v3d

$$$$
14725830


 34 38  0  0  0  0  0  0  0  0999 V2000
  -35.1518  -16.0441    1.3027 N   0  0  0  0  0  0  0  0  0  0  0  0
  -34.0118  -15.3336    1.6132 C   0  0  0  0  0  0  0  0  0  0  0  0
  -33.6355  -15.1309    2.9042 N   0  0  0  0  0  0  0  0  0  0  0  0
  -34.3887  -15.6511    3.8954 C   0  0  0  0  0  0  0  0  0  0  0  0
  -35.5192  -16.3780    3.6460 C   0  0  0  0  0  0  0  0  0  0  0  0
  -35.9495  -16.5637    2.3153 C   0  0  0  0  0  0  0  0  0  0  0  0
  -37.0803  -17.1667    2.0536 N   0  0  0  0  0  0  0  0  0  0  0  0
  -36.0003  -16.7775    4.8952 C   0  0  0  0  0  0  0  0  0  0  0  0
  -35.1170  -16.2388    5.8328 C   0  0  0  0  0  0  0  0  0  0  0  0
  -34.1249  -15.5555    5.2111 N   0  0  0  0  0  0  0  0  0  0  0  0
  -37.6279  -17.5265    2.7884 H   0  0  0  0  0  0  0  0  0  0  0  0
  -37.3838  -17.2609    1.1218 H   0  0  0  0  0  0  0  0  0  0  0  0
  -37.0562  -17.7577    5.2003 C   0  0  0  0  0  0  0  0  0  0  0  0
  -36.9339  -19.0835    4.7585 C   0  0  0  0  0  0  0  0  0  0  0  0
  -37.9292  -20.0183    5.0579 C   0  0  0  0  0  0  0  0  0  0  0  0
  -39.0484  -19.6354    5.8012 C   0  0  0  0  0  0  0  0  0  0  0  0
  -39.1718  -18.3174    6.2472 C   0  0  0  0  0  0  0  0  0  0  0  0
  -38.1786  -17.3796    5.9501 C   0  0  0  0  0  0  0  0  0  0  0  0
  -35.1742  -16.4775    7.2845 C   0  0  0  0  0  0  0  0  0  0  0  0
  -35.6269  -15.4675    8.1448 C   0  0  0  0  0  0  0  0  0  0  0  0
  -35.6930  -15.6967    9.5228 C   0  0  0  0  0  0  0  0  0  0  0  0
  -35.3103  -16.9342   10.0451 C   0  0  0  0  0  0  0  0  0  0  0  0
  -34.8602  -17.9446    9.1900 C   0  0  0  0  0  0  0  0  0  0  0  0
  -34.7915  -17.7179    7.8120 C   0  0  0  0  0  0  0  0  0  0  0  0
  -35.4766  -16.2003   -0.1291 C   0  0  0  0  0  0  0  0  0  0  0  0
  -33.8292  -16.1695   -1.8857 O   0  0  0  0  0  0  0  0  0  0  0  0
  -34.5381  -15.3534   -0.9942 C   0  0  0  0  0  0  0  0  0  0  0  0
  -33.2395  -15.6214   -2.4267 H   0  0  0  0  0  0  0  0  0  0  0  0
  -33.0189  -14.8159    5.8252 C   0  0  0  0  0  0  0  0  0  0  0  0
  -31.8424  -15.7185    6.0195 C   0  0  0  0  0  0  0  0  0  0  0  0
  -31.0230  -16.0749    5.0581 O   0  0  0  0  0  0  0  0  0  0  0  0
  -30.0995  -16.8582    5.5663 C   0  0  0  0  0  0  0  0  0  0  0  0
  -30.3220  -17.0235    6.9183 C   0  0  0  0  0  0  0  0  0  0  0  0
  -31.4500  -16.2891    7.2132 C   0  0  0  0  0  0  0  0  0  0  0  0
 26 27  1  0  0  0
 27 25  1  0  0  0
 25  1  1  0  0  0
  1  2  1  0  0  0
  2  3  2  0  0  0
  3  4  1  0  0  0
  4  5  2  0  0  0
  5  6  1  0  0  0
  6  7  2  0  0  0
  5  8  1  0  0  0
  8 13  1  0  0  0
 13 14  2  0  0  0
 14 15  1  0  0  0
 15 16  2  0  0  0
 16 17  1  0  0  0
 17 18  2  0  0  0
  8  9  2  0  0  0
  9 19  1  0  0  0
 19 20  2  0  0  0
 20 21  1  0  0  0
 21 22  2  0  0  0
 22 23  1  0  0  0
 23 24  2  0  0  0
  9 10  1  0  0  0
 10 29  1  0  0  0
 29 30  1  0  0  0
 30 31  1  0  0  0
 31 32  1  0  0  0
 32 33  2  0  0  0
 33 34  1  0  0  0
  6  1  1  0  0  0
 10  4  1  0  0  0
 18 13  1  0  0  0
 24 19  1  0  0  0
 34 30  2  0  0  0
 26 28  1  0  0  0
  7 11  1  0  0  0
  7 12  1  0  0  0
M  CHG 1   7   1
M  END
> <minimizedAffinity>
-7.81187

> <newdefault_CNNaffinity>
6.29635

> <newdefault_CNNscore>
0.342622

> <CNNaffinity_times_score>
2.157268

> <protein>
2xwe

$$$$
14729172


 32 34  0  0  0  0  0  0  0  0999 V2000
  -39.2416  -21.3335    8.5350 C   0  0  0  0  0  0  0  0  0  0  0  0
  -39.2212  -20.1774    9.0392 O   0  0  0  0  0  0  0  0  0  0  0  0
  -38.9960  -21.5054    7.1295 N   0  0  0  0  0  0  0  0  0  0  0  0
  -39.3069  -22.3368    6.7036 H   0  0  0  0  0  0  0  0  0  0  0  0
  -40.2044  -24.7270   11.0128 C   0  0  0  0  0  0  0  0  0  0  0  0
  -41.2332  -23.9336   10.4593 C   0  0  0  0  0  0  0  0  0  0  0  0
  -42.5418  -24.2136   10.6776 F   0  0  0  0  0  0  0  0  0  0  0  0
  -40.9186  -22.8325    9.6540 C   0  0  0  0  0  0  0  0  0  0  0  0
  -41.9330  -22.1198    9.1002 F   0  0  0  0  0  0  0  0  0  0  0  0
  -39.5767  -22.4982    9.3891 C   0  0  0  0  0  0  0  0  0  0  0  0
  -38.5558  -23.2986    9.9342 C   0  0  0  0  0  0  0  0  0  0  0  0
  -37.2492  -23.0041    9.7106 F   0  0  0  0  0  0  0  0  0  0  0  0
  -38.8717  -24.3969   10.7392 C   0  0  0  0  0  0  0  0  0  0  0  0
  -37.8713  -25.1498   11.2629 F   0  0  0  0  0  0  0  0  0  0  0  0
  -40.9379  -27.1044   11.3932 C   0  0  0  0  0  0  0  0  0  0  0  0
  -40.4421  -25.8445   11.8319 O   0  0  0  0  0  0  0  0  0  0  0  0
  -38.3232  -20.5354    6.3080 C   0  0  0  0  0  0  0  0  0  0  0  0
  -39.0483  -19.8424    5.3284 C   0  0  0  0  0  0  0  0  0  0  0  0
  -38.4134  -18.9120    4.5024 C   0  0  0  0  0  0  0  0  0  0  0  0
  -37.0391  -18.6667    4.6359 C   0  0  0  0  0  0  0  0  0  0  0  0
  -36.3000  -19.3781    5.5978 C   0  0  0  0  0  0  0  0  0  0  0  0
  -34.5618  -19.1574    5.7500 Cl  0  0  0  0  0  0  0  0  0  0  0  0
  -36.9397  -20.3105    6.4229 C   0  0  0  0  0  0  0  0  0  0  0  0
  -36.3965  -17.7025    3.7874 N   0  0  0  0  0  0  0  0  0  0  0  0
  -35.3176  -18.1438    2.8964 C   0  0  0  0  0  0  0  0  0  0  0  0
  -35.3113  -17.3003    1.6200 C   0  0  0  0  0  0  0  0  0  0  0  0
  -35.3678  -15.8735    1.9700 N   0  0  0  0  0  0  0  0  0  0  0  0
  -36.4827  -15.4470    2.8268 C   0  0  0  0  0  0  0  0  0  0  0  0
  -36.4922  -16.2752    4.1121 C   0  0  0  0  0  0  0  0  0  0  0  0
  -34.3843  -14.9223    1.5043 C   0  0  0  0  0  0  0  0  0  0  0  0
  -34.2566  -13.8121    2.0884 O   0  0  0  0  0  0  0  0  0  0  0  0
  -33.4819  -15.2244    0.3466 C   0  0  0  0  0  0  0  0  0  0  0  0
 15 16  1  0  0  0
 16  5  1  0  0  0
  5  6  2  0  0  0
  6  7  1  0  0  0
  6  8  1  0  0  0
  8  9  1  0  0  0
  8 10  2  0  0  0
 10  1  1  0  0  0
  1  2  2  0  0  0
  1  3  1  0  0  0
  3 17  1  0  0  0
 17 18  2  0  0  0
 18 19  1  0  0  0
 19 20  2  0  0  0
 20 24  1  0  0  0
 24 25  1  0  0  0
 25 26  1  0  0  0
 26 27  1  0  0  0
 27 28  1  0  0  0
 28 29  1  0  0  0
 27 30  1  0  0  0
 30 31  2  0  0  0
 30 32  1  0  0  0
 20 21  1  0  0  0
 21 22  1  0  0  0
 21 23  2  0  0  0
 10 11  1  0  0  0
 11 12  1  0  0  0
 11 13  2  0  0  0
 13 14  1  0  0  0
 13  5  1  0  0  0
 23 17  1  0  0  0
 29 24  1  0  0  0
  3  4  1  0  0  0
M  END
> <minimizedAffinity>
-7.73549

> <newdefault_CNNaffinity>
6.66169

> <newdefault_CNNscore>
0.614901

> <CNNaffinity_times_score>
4.09628

> <protein>
2xwe

$$$$
14729643


 24 26  0  0  0  0  0  0  0  0999 V2000
  -34.1158  -17.4898    7.2315 C   0  0  0  0  0  0  0  0  0  0  0  0
  -34.9163  -18.1691    6.1650 C   0  0  0  0  0  0  0  0  0  0  0  0
  -34.7267  -17.8382    4.8189 C   0  0  0  0  0  0  0  0  0  0  0  0
  -35.5123  -18.4822    3.8483 C   0  0  0  0  0  0  0  0  0  0  0  0
  -36.4217  -19.4108    4.2488 N   0  0  0  0  0  0  0  0  0  0  0  0
  -36.5932  -19.7252    5.5613 C   0  0  0  0  0  0  0  0  0  0  0  0
  -35.8421  -19.1030    6.5064 N   0  0  0  0  0  0  0  0  0  0  0  0
  -35.3839  -18.2036    2.4414 N   0  0  0  0  0  0  0  0  0  0  0  0
  -34.7472  -18.7492    1.9254 H   0  0  0  0  0  0  0  0  0  0  0  0
  -36.1327  -17.1649    1.7176 C   0  0  0  0  0  0  0  0  0  0  0  0
  -35.3631  -16.7323    0.4543 C   0  0  0  0  0  0  0  0  0  0  0  0
  -34.0088  -16.0797    0.7939 C   0  0  0  0  0  0  0  0  0  0  0  0
  -34.0213  -15.2766    2.1106 C   0  0  0  0  0  0  0  0  0  0  0  0
  -35.4246  -14.7818    2.4686 C   0  0  0  0  0  0  0  0  0  0  0  0
  -36.4209  -15.9462    2.6367 C   0  0  0  0  0  0  0  0  0  0  0  0
  -37.5542  -20.7108    5.9536 N   0  0  0  0  0  0  0  0  0  0  0  0
  -37.7194  -21.4816    5.3638 H   0  0  0  0  0  0  0  0  0  0  0  0
  -38.2971  -20.6012    7.2095 C   0  0  0  0  0  0  0  0  0  0  0  0
  -37.8873  -21.6865    8.1701 C   0  0  0  0  0  0  0  0  0  0  0  0
  -37.6506  -21.3935    9.5238 C   0  0  0  0  0  0  0  0  0  0  0  0
  -37.2768  -22.4104   10.4079 C   0  0  0  0  0  0  0  0  0  0  0  0
  -37.1390  -23.7234    9.9487 C   0  0  0  0  0  0  0  0  0  0  0  0
  -37.3703  -24.0212    8.6037 C   0  0  0  0  0  0  0  0  0  0  0  0
  -37.7429  -23.0076    7.7159 C   0  0  0  0  0  0  0  0  0  0  0  0
  1  2  1  0  0  0
  2  3  2  0  0  0
  3  4  1  0  0  0
  4  8  1  0  0  0
  8 10  1  0  0  0
 10 11  1  0  0  0
 11 12  1  0  0  0
 12 13  1  0  0  0
 13 14  1  0  0  0
 14 15  1  0  0  0
  4  5  2  0  0  0
  5  6  1  0  0  0
  6 16  1  0  0  0
 16 18  1  0  0  0
 18 19  1  0  0  0
 19 20  2  0  0  0
 20 21  1  0  0  0
 21 22  2  0  0  0
 22 23  1  0  0  0
 23 24  2  0  0  0
  6  7  2  0  0  0
  7  2  1  0  0  0
 15 10  1  0  0  0
 24 19  1  0  0  0
  8  9  1  0  0  0
 16 17  1  0  0  0
M  END
> <minimizedAffinity>
-6.84197

> <newdefault_CNNaffinity>
5.65512

> <newdefault_CNNscore>
0.640838

> <CNNaffinity_times_score>
3.6240158

> <protein>
2xwe

$$$$
14730814


 23 25  0  0  0  0  0  0  0  0999 V2000
  -33.7920  -14.1925   -1.8416 C   0  0  0  0  0  0  0  0  0  0  0  0
  -34.6643  -15.0325   -0.9645 C   0  0  0  0  0  0  0  0  0  0  0  0
  -35.6329  -15.8866   -1.5381 C   0  0  0  0  0  0  0  0  0  0  0  0
  -36.4389  -16.6645   -0.6905 C   0  0  0  0  0  0  0  0  0  0  0  0
  -37.4332  -17.5441   -1.2224 N   0  0  0  0  0  0  0  0  0  0  0  0
  -36.2417  -16.5528    0.6482 N   0  0  0  0  0  0  0  0  0  0  0  0
  -36.8841  -17.1875    1.6128 N   0  0  0  0  0  0  0  0  0  0  0  0
  -36.3505  -16.7605    2.7861 C   0  0  0  0  0  0  0  0  0  0  0  0
  -35.3382  -15.8252    2.5417 C   0  0  0  0  0  0  0  0  0  0  0  0
  -35.3203  -15.7392    1.1717 C   0  0  0  0  0  0  0  0  0  0  0  0
  -34.5210  -14.9709    0.3931 N   0  0  0  0  0  0  0  0  0  0  0  0
  -37.5610  -17.6111   -2.1963 H   0  0  0  0  0  0  0  0  0  0  0  0
  -37.9899  -18.0826   -0.6147 H   0  0  0  0  0  0  0  0  0  0  0  0
  -36.8069  -17.2440    4.1124 C   0  0  0  0  0  0  0  0  0  0  0  0
  -36.7467  -18.6117    4.4184 C   0  0  0  0  0  0  0  0  0  0  0  0
  -37.1718  -19.0869    5.6621 C   0  0  0  0  0  0  0  0  0  0  0  0
  -37.6738  -18.2045    6.6461 C   0  0  0  0  0  0  0  0  0  0  0  0
  -37.7289  -16.8309    6.3255 C   0  0  0  0  0  0  0  0  0  0  0  0
  -37.3033  -16.3586    5.0816 C   0  0  0  0  0  0  0  0  0  0  0  0
  -38.1539  -18.6841    8.0317 C   0  0  0  0  0  0  0  0  0  0  0  0
  -38.1652  -17.4923    9.0136 C   0  0  0  0  0  0  0  0  0  0  0  0
  -37.2514  -19.7848    8.6396 C   0  0  0  0  0  0  0  0  0  0  0  0
  -39.5808  -19.2621    7.9106 C   0  0  0  0  0  0  0  0  0  0  0  0
  1  2  1  0  0  0
  2  3  1  0  0  0
  3  4  2  0  0  0
  4  5  1  0  0  0
  4  6  1  0  0  0
  6  7  1  0  0  0
  7  8  2  0  0  0
  8  9  1  0  0  0
  9 10  2  0  0  0
 10 11  1  0  0  0
  8 14  1  0  0  0
 14 15  2  0  0  0
 15 16  1  0  0  0
 16 17  2  0  0  0
 17 18  1  0  0  0
 18 19  2  0  0  0
 17 20  1  0  0  0
 20 21  1  0  0  0
 20 22  1  0  0  0
 20 23  1  0  0  0
 11  2  2  0  0  0
 10  6  1  0  0  0
 19 14  1  0  0  0
  5 12  1  0  0  0
  5 13  1  0  0  0
M  END
> <minimizedAffinity>
-7.05787

> <newdefault_CNNaffinity>
5.20728

> <newdefault_CNNscore>
0.231823

> <CNNaffinity_times_score>
1.2071673

> <protein>
2xwe

$$$$
14731402


 31 34  0  0  0  0  0  0  0  0999 V2000
  -34.7832  -18.4032    5.5252 S   0  0  0  0  0  0  0  0  0  0  0  0
  -34.0123  -17.6343    6.5622 O   0  0  0  0  0  0  0  0  0  0  0  0
  -34.1913  -19.7825    5.4355 O   0  0  0  0  0  0  0  0  0  0  0  0
  -34.6201  -17.5973    3.9635 C   0  0  0  0  0  0  0  0  0  0  0  0
  -33.6248  -16.6286    3.7717 C   0  0  0  0  0  0  0  0  0  0  0  0
  -33.4822  -15.9971    2.5333 C   0  0  0  0  0  0  0  0  0  0  0  0
  -34.3348  -16.3299    1.4711 C   0  0  0  0  0  0  0  0  0  0  0  0
  -34.2080  -15.7255    0.2561 N   0  0  0  0  0  0  0  0  0  0  0  0
  -35.0341  -16.0483   -0.7768 C   0  0  0  0  0  0  0  0  0  0  0  0
  -34.9010  -15.4754   -1.8926 O   0  0  0  0  0  0  0  0  0  0  0  0
  -36.0289  -17.0185   -0.5919 C   0  0  0  0  0  0  0  0  0  0  0  0
  -36.8005  -17.3294   -1.5396 O   0  0  0  0  0  0  0  0  0  0  0  0
  -36.1603  -17.6265    0.6190 N   0  0  0  0  0  0  0  0  0  0  0  0
  -35.3387  -17.3054    1.6582 C   0  0  0  0  0  0  0  0  0  0  0  0
  -35.4759  -17.9335    2.9049 C   0  0  0  0  0  0  0  0  0  0  0  0
  -33.5086  -15.0454    0.1233 H   0  0  0  0  0  0  0  0  0  0  0  0
  -36.8591  -18.3082    0.7461 H   0  0  0  0  0  0  0  0  0  0  0  0
  -38.7459  -17.2019    7.5800 C   0  0  0  0  0  0  0  0  0  0  0  0
  -38.0254  -18.5103    7.9256 C   0  0  0  0  0  0  0  0  0  0  0  0
  -36.5531  -18.4782    7.4826 C   0  0  0  0  0  0  0  0  0  0  0  0
  -36.4563  -18.5211    6.0110 N   0  0  0  0  0  0  0  0  0  0  0  0
  -37.0427  -19.7679    5.4867 C   0  0  0  0  0  0  0  0  0  0  0  0
  -38.5304  -19.8366    5.8364 C   0  0  0  0  0  0  0  0  0  0  0  0
  -38.6980  -19.6494    7.2821 N   0  0  0  0  0  0  0  0  0  0  0  0
  -39.3904  -20.6404    8.0625 C   0  0  0  0  0  0  0  0  0  0  0  0
  -38.7870  -21.8764    8.3447 C   0  0  0  0  0  0  0  0  0  0  0  0
  -39.4739  -22.8427    9.0836 C   0  0  0  0  0  0  0  0  0  0  0  0
  -40.7656  -22.5837    9.5490 C   0  0  0  0  0  0  0  0  0  0  0  0
  -41.3764  -21.3483    9.2859 C   0  0  0  0  0  0  0  0  0  0  0  0
  -42.7772  -21.0808    9.7505 C   0  0  0  0  0  0  0  0  0  0  0  0
  -40.6910  -20.3873    8.5264 C   0  0  0  0  0  0  0  0  0  0  0  0
 19 18  1  0  0  0
 19 20  1  0  0  0
 20 21  1  0  0  0
 21 22  1  0  0  0
 22 23  1  0  0  0
 23 24  1  0  0  0
 24 25  1  0  0  0
 25 26  2  0  0  0
 26 27  1  0  0  0
 27 28  2  0  0  0
 28 29  1  0  0  0
 29 30  1  0  0  0
 29 31  2  0  0  0
 21  1  1  0  0  0
  1  2  2  0  0  0
  1  3  2  0  0  0
  1  4  1  0  0  0
  4  5  2  0  0  0
  5  6  1  0  0  0
  6  7  2  0  0  0
  7  8  1  0  0  0
  8  9  1  0  0  0
  9 10  2  0  0  0
  9 11  1  0  0  0
 11 12  2  0  0  0
 11 13  1  0  0  0
 13 14  1  0  0  0
 14 15  2  0  0  0
 24 19  1  0  0  0
 31 25  1  0  0  0
 15  4  1  0  0  0
 14  7  1  0  0  0
  8 16  1  0  0  0
 13 17  1  0  0  0
M  END
> <minimizedAffinity>
-8.92117

> <newdefault_CNNaffinity>
6.87441

> <newdefault_CNNscore>
0.708866

> <CNNaffinity_times_score>
4.8730354

> <protein>
2xwe

$$$$
14731545


 34 38  0  0  0  0  0  0  0  0999 V2000
   -0.4418   -3.1720   41.0496 O   0  0  0  0  0  0  0  0  0  0  0  0
    0.0574   -2.1699   40.4659 C   0  0  0  0  0  0  0  0  0  0  0  0
    1.3925   -1.6309   40.9004 C   0  0  0  0  0  0  0  0  0  0  0  0
    1.9300   -2.3456   42.1625 C   0  0  0  0  0  0  0  0  0  0  0  0
    3.3411   -2.5963   41.9104 N   0  0  0  0  0  0  0  0  0  0  0  0
    3.6349   -2.2914   40.5555 C   0  0  0  0  0  0  0  0  0  0  0  0
    4.7516   -2.5198   40.0195 O   0  0  0  0  0  0  0  0  0  0  0  0
    2.4708   -1.7746   39.8082 C   0  0  0  0  0  0  0  0  0  0  0  0
    4.2747   -3.0774   42.8989 C   0  0  0  0  0  0  0  0  0  0  0  0
    4.7712   -2.2079   43.8864 C   0  0  0  0  0  0  0  0  0  0  0  0
    5.6865   -2.6590   44.8404 C   0  0  0  0  0  0  0  0  0  0  0  0
    6.1292   -3.9881   44.8205 C   0  0  0  0  0  0  0  0  0  0  0  0
    7.0491   -4.4513   45.7743 C   0  0  0  0  0  0  0  0  0  0  0  0
    7.4872   -5.7783   45.7395 C   0  0  0  0  0  0  0  0  0  0  0  0
    7.0141   -6.6499   44.7550 C   0  0  0  0  0  0  0  0  0  0  0  0
    6.0978   -6.2009   43.7995 C   0  0  0  0  0  0  0  0  0  0  0  0
    5.6476   -4.8710   43.8245 C   0  0  0  0  0  0  0  0  0  0  0  0
    4.7297   -4.4085   42.8692 C   0  0  0  0  0  0  0  0  0  0  0  0
   -0.6337   -1.5316   39.4297 O   0  0  0  0  0  0  0  0  0  0  0  0
   -1.1648   -0.2124   39.5370 C   0  0  0  0  0  0  0  0  0  0  0  0
   -0.2204    0.8010   38.8830 C   0  0  0  0  0  0  0  0  0  0  0  0
    0.2282    1.7935   39.8569 N   0  0  0  0  0  0  0  0  0  0  0  0
    0.8891    2.8784   39.5764 C   0  0  0  0  0  0  0  0  0  0  0  0
    1.2422    3.2799   38.2455 N   0  0  0  0  0  0  0  0  0  0  0  0
    2.1122    4.7656   38.3263 S   0  0  0  0  0  0  0  0  0  0  0  0
    1.3766    5.8753   37.6298 O   0  0  0  0  0  0  0  0  0  0  0  0
    3.5202    4.6080   37.8266 O   0  0  0  0  0  0  0  0  0  0  0  0
    2.0283    4.8988   40.0578 C   0  0  0  0  0  0  0  0  0  0  0  0
    2.5442    5.9188   40.8554 C   0  0  0  0  0  0  0  0  0  0  0  0
    2.3559    5.8421   42.2447 C   0  0  0  0  0  0  0  0  0  0  0  0
    1.6616    4.7548   42.8086 C   0  0  0  0  0  0  0  0  0  0  0  0
    1.1506    3.7358   41.9876 C   0  0  0  0  0  0  0  0  0  0  0  0
    1.3436    3.8252   40.6056 C   0  0  0  0  0  0  0  0  0  0  0  0
    1.0235    2.7878   37.4213 H   0  0  0  0  0  0  0  0  0  0  0  0
  1  2  2  0  0  0
  2 19  1  0  0  0
 19 20  1  0  0  0
 20 21  1  0  0  0
 21 22  1  0  0  0
 22 23  2  0  0  0
 23 24  1  0  0  0
 24 25  1  0  0  0
 25 26  2  0  0  0
 25 27  2  0  0  0
 25 28  1  0  0  0
 28 29  2  0  0  0
 29 30  1  0  0  0
 30 31  2  0  0  0
 31 32  1  0  0  0
 32 33  2  0  0  0
  3  2  1  0  0  0
  3  4  1  0  0  0
  4  5  1  0  0  0
  5  6  1  0  0  0
  6  7  2  0  0  0
  6  8  1  0  0  0
  5  9  1  0  0  0
  9 10  2  0  0  0
 10 11  1  0  0  0
 11 12  2  0  0  0
 12 13  1  0  0  0
 13 14  2  0  0  0
 14 15  1  0  0  0
 15 16  2  0  0  0
 16 17  1  0  0  0
 17 18  2  0  0  0
 23 33  1  0  0  0
 33 28  1  0  0  0
  8  3  1  0  0  0
 18  9  1  0  0  0
 17 12  1  0  0  0
 24 34  1  0  0  0
M  END
> <minimizedAffinity>
-7.83987

> <newdefault_CNNaffinity>
5.79868

> <newdefault_CNNscore>
0.776483

> <CNNaffinity_times_score>
4.5025764

> <protein>
3rik

$$$$
14733292


 32 34  0  0  0  0  0  0  0  0999 V2000
    2.8210   -5.1488   44.3247 N   0  0  0  0  0  0  0  0  0  0  0  0
    2.8653   -2.6033   40.9152 C   0  0  0  0  0  0  0  0  0  0  0  0
    1.6784   -2.8195   41.6247 C   0  0  0  0  0  0  0  0  0  0  0  0
    1.6638   -3.6500   42.7488 C   0  0  0  0  0  0  0  0  0  0  0  0
    2.8405   -4.2808   43.1789 C   0  0  0  0  0  0  0  0  0  0  0  0
    4.0326   -4.0653   42.4707 C   0  0  0  0  0  0  0  0  0  0  0  0
    4.0479   -3.2336   41.3476 C   0  0  0  0  0  0  0  0  0  0  0  0
    1.7148   -0.9506   39.4343 C   0  0  0  0  0  0  0  0  0  0  0  0
    2.8282   -1.7614   39.7936 O   0  0  0  0  0  0  0  0  0  0  0  0
    3.4912   -4.6008   45.8341 S   0  0  0  0  0  0  0  0  0  0  0  0
    3.0334   -5.4940   46.9526 O   0  0  0  0  0  0  0  0  0  0  0  0
    2.9957   -3.2094   46.1114 O   0  0  0  0  0  0  0  0  0  0  0  0
    5.2668   -4.6555   45.7481 C   0  0  0  0  0  0  0  0  0  0  0  0
    6.0274   -3.4865   45.5140 C   0  0  0  0  0  0  0  0  0  0  0  0
    5.3914   -2.1462   45.2851 C   0  0  0  0  0  0  0  0  0  0  0  0
    7.3841   -3.5670   45.4723 N   0  0  0  0  0  0  0  0  0  0  0  0
    8.0310   -4.7422   45.6637 C   0  0  0  0  0  0  0  0  0  0  0  0
    9.4176   -4.7871   45.6141 O   0  0  0  0  0  0  0  0  0  0  0  0
    7.3248   -5.8729   45.9056 N   0  0  0  0  0  0  0  0  0  0  0  0
    5.9687   -5.8589   45.9545 C   0  0  0  0  0  0  0  0  0  0  0  0
    5.2988   -7.0474   46.2158 O   0  0  0  0  0  0  0  0  0  0  0  0
    2.1328   -6.4411   44.2697 C   0  0  0  0  0  0  0  0  0  0  0  0
    2.9576   -7.4259   43.4995 C   0  0  0  0  0  0  0  0  0  0  0  0
    3.0607   -7.3079   42.2481 O   0  0  0  0  0  0  0  0  0  0  0  0
    3.6361   -8.4862   44.1887 N   0  0  0  0  0  0  0  0  0  0  0  0
    3.4829   -8.6002   45.1545 H   0  0  0  0  0  0  0  0  0  0  0  0
    4.5505   -9.4060   43.5026 C   0  0  0  0  0  0  0  0  0  0  0  0
    3.7723  -10.6318   42.9557 C   0  0  0  0  0  0  0  0  0  0  0  0
    3.8818  -11.8460   43.8847 C   0  0  0  0  0  0  0  0  0  0  0  0
    5.3471  -12.2914   44.0672 C   0  0  0  0  0  0  0  0  0  0  0  0
    6.3559  -11.1259   44.0022 C   0  0  0  0  0  0  0  0  0  0  0  0
    5.7177   -9.8047   44.4416 C   0  0  0  0  0  0  0  0  0  0  0  0
  8  9  1  0  0  0
  9  2  1  0  0  0
  2  3  2  0  0  0
  3  4  1  0  0  0
  4  5  2  0  0  0
  5  6  1  0  0  0
  6  7  2  0  0  0
  5  1  1  0  0  0
  1 22  1  0  0  0
 22 23  1  0  0  0
 23 24  2  0  0  0
 23 25  1  0  0  0
 25 27  1  0  0  0
 27 28  1  0  0  0
 28 29  1  0  0  0
 29 30  1  0  0  0
 30 31  1  0  0  0
 31 32  1  0  0  0
  1 10  1  0  0  0
 10 11  2  0  0  0
 10 12  2  0  0  0
 10 13  1  0  0  0
 13 14  2  0  0  0
 14 15  1  0  0  0
 14 16  1  0  0  0
 16 17  2  0  0  0
 17 18  1  0  0  0
 17 19  1  0  0  0
 19 20  2  0  0  0
 20 21  1  0  0  0
  7  2  1  0  0  0
 32 27  1  0  0  0
 20 13  1  0  0  0
 25 26  1  0  0  0
M  CHG 1  18  -1
M  CHG 1  21  -1
M  END
> <minimizedAffinity>
-6.09816

> <newdefault_CNNaffinity>
5.55314

> <newdefault_CNNscore>
0.253197

> <CNNaffinity_times_score>
1.4060385

> <protein>
3rik

$$$$
14734284


 37 40  0  0  0  0  0  0  0  0999 V2000
   -8.2995   -6.3472   37.9734 C   0  0  0  0  0  0  0  0  0  0  0  0
   -9.2282   -7.2192   38.5539 C   0  0  0  0  0  0  0  0  0  0  0  0
   -8.8316   -8.2322   39.3804 N   0  0  0  0  0  0  0  0  0  0  0  0
   -7.5029   -8.4403   39.6497 C   0  0  0  0  0  0  0  0  0  0  0  0
   -7.1544   -9.3723   40.4319 O   0  0  0  0  0  0  0  0  0  0  0  0
   -6.5209   -7.6185   39.0605 C   0  0  0  0  0  0  0  0  0  0  0  0
   -5.1491   -7.8357   39.3028 C   0  0  0  0  0  0  0  0  0  0  0  0
   -4.1851   -7.0405   38.6830 C   0  0  0  0  0  0  0  0  0  0  0  0
   -4.5718   -6.0304   37.8083 C   0  0  0  0  0  0  0  0  0  0  0  0
   -5.9258   -5.7950   37.5600 C   0  0  0  0  0  0  0  0  0  0  0  0
   -6.9205   -6.5663   38.1989 C   0  0  0  0  0  0  0  0  0  0  0  0
   -9.8420   -9.0841   39.9617 C   0  0  0  0  0  0  0  0  0  0  0  0
   -9.9275  -10.4322   39.5727 C   0  0  0  0  0  0  0  0  0  0  0  0
  -10.9171  -11.2610   40.1043 C   0  0  0  0  0  0  0  0  0  0  0  0
  -11.8359  -10.7507   41.0244 C   0  0  0  0  0  0  0  0  0  0  0  0
  -11.7660   -9.4114   41.4185 C   0  0  0  0  0  0  0  0  0  0  0  0
  -10.7637   -8.5675   40.8981 C   0  0  0  0  0  0  0  0  0  0  0  0
  -10.6446   -7.2250   41.2928 O   0  0  0  0  0  0  0  0  0  0  0  0
  -11.7457   -6.3538   41.5402 C   0  0  0  0  0  0  0  0  0  0  0  0
   -8.9059   -5.3123   35.7445 N   0  0  0  0  0  0  0  0  0  0  0  0
   -8.8149   -5.2114   37.1743 C   0  0  0  0  0  0  0  0  0  0  0  0
   -9.1186   -4.1317   37.7543 O   0  0  0  0  0  0  0  0  0  0  0  0
   -8.6169   -6.1476   35.3109 H   0  0  0  0  0  0  0  0  0  0  0  0
   -9.4096   -4.2268   34.9074 C   0  0  0  0  0  0  0  0  0  0  0  0
   -8.5562   -2.0523   33.9073 N   0  0  0  0  0  0  0  0  0  0  0  0
   -8.2825   -3.3555   34.4434 C   0  0  0  0  0  0  0  0  0  0  0  0
   -7.0944   -3.7605   34.5668 O   0  0  0  0  0  0  0  0  0  0  0  0
   -9.4636   -1.6860   34.0155 H   0  0  0  0  0  0  0  0  0  0  0  0
   -5.7233    0.3966   31.8738 C   0  0  0  0  0  0  0  0  0  0  0  0
   -6.0936    0.6755   33.2041 C   0  0  0  0  0  0  0  0  0  0  0  0
   -7.0198   -0.1393   33.8670 C   0  0  0  0  0  0  0  0  0  0  0  0
   -7.5773   -1.2520   33.2205 C   0  0  0  0  0  0  0  0  0  0  0  0
   -7.2176   -1.5222   31.8874 C   0  0  0  0  0  0  0  0  0  0  0  0
   -6.2979   -0.7027   31.2242 C   0  0  0  0  0  0  0  0  0  0  0  0
   -4.8106    1.1887   31.1560 O   0  0  0  0  0  0  0  0  0  0  0  0
   -4.9721    1.9875   28.8632 C   0  0  0  0  0  0  0  0  0  0  0  0
   -5.1498    2.3148   30.3419 C   0  0  0  0  0  0  0  0  0  0  0  0
 36 37  1  0  0  0
 37 35  1  0  0  0
 35 29  1  0  0  0
 29 30  2  0  0  0
 30 31  1  0  0  0
 31 32  2  0  0  0
 32 25  1  0  0  0
 25 26  1  0  0  0
 26 27  2  0  0  0
 26 24  1  0  0  0
 24 20  1  0  0  0
 20 21  1  0  0  0
 21 22  2  0  0  0
 21  1  1  0  0  0
  1  2  2  0  0  0
  2  3  1  0  0  0
  3  4  1  0  0  0
  4  5  2  0  0  0
  4  6  1  0  0  0
  6  7  2  0  0  0
  7  8  1  0  0  0
  8  9  2  0  0  0
  9 10  1  0  0  0
 10 11  2  0  0  0
  3 12  1  0  0  0
 12 13  2  0  0  0
 13 14  1  0  0  0
 14 15  2  0  0  0
 15 16  1  0  0  0
 16 17  2  0  0  0
 17 18  1  0  0  0
 18 19  1  0  0  0
 32 33  1  0  0  0
 33 34  2  0  0  0
 34 29  1  0  0  0
 11  1  1  0  0  0
 11  6  1  0  0  0
 17 12  1  0  0  0
 25 28  1  0  0  0
 20 23  1  0  0  0
M  END
> <minimizedAffinity>
-7.91931

> <newdefault_CNNaffinity>
6.33415

> <newdefault_CNNscore>
0.511416

> <CNNaffinity_times_score>
3.2393856

> <protein>
3ril

$$$$
14738100


 29 31  0  0  0  0  0  0  0  0999 V2000
   -9.0830   -4.1658   36.0834 N   0  0  0  0  0  0  0  0  0  0  0  0
   -8.2284   -4.9335   36.9505 C   0  0  0  0  0  0  0  0  0  0  0  0
   -6.9770   -4.7763   36.9019 O   0  0  0  0  0  0  0  0  0  0  0  0
   -8.7859   -5.8721   37.8966 N   0  0  0  0  0  0  0  0  0  0  0  0
  -10.0559   -4.2861   36.1734 H   0  0  0  0  0  0  0  0  0  0  0  0
   -7.0236   -0.4268   31.8508 Cl  0  0  0  0  0  0  0  0  0  0  0  0
   -7.6253   -1.4919   33.1154 C   0  0  0  0  0  0  0  0  0  0  0  0
   -8.2084   -2.7116   32.7526 C   0  0  0  0  0  0  0  0  0  0  0  0
   -8.6913   -3.5802   33.7357 C   0  0  0  0  0  0  0  0  0  0  0  0
   -8.6108   -3.2347   35.0942 C   0  0  0  0  0  0  0  0  0  0  0  0
   -8.0005   -2.0192   35.4566 C   0  0  0  0  0  0  0  0  0  0  0  0
   -7.5201   -1.1452   34.4725 C   0  0  0  0  0  0  0  0  0  0  0  0
   -6.7792    0.3699   34.9707 Cl  0  0  0  0  0  0  0  0  0  0  0  0
  -10.0735   -5.6160   38.5627 C   0  0  0  0  0  0  0  0  0  0  0  0
  -10.0400   -6.0963   40.0220 C   0  0  0  0  0  0  0  0  0  0  0  0
  -11.1517   -5.4398   40.8778 C   0  0  0  0  0  0  0  0  0  0  0  0
  -12.3595   -6.2906   41.0103 N   0  0  0  0  0  0  0  0  0  0  0  0
  -11.9678   -7.7148   41.0768 C   0  0  0  0  0  0  0  0  0  0  0  0
  -13.2093   -8.6255   41.2287 C   0  0  0  0  0  0  0  0  0  0  0  0
  -14.4234   -7.9320   41.0030 O   0  0  0  0  0  0  0  0  0  0  0  0
  -14.3448   -7.2150   39.7882 C   0  0  0  0  0  0  0  0  0  0  0  0
  -13.3118   -6.0743   39.8931 C   0  0  0  0  0  0  0  0  0  0  0  0
  -12.8334   -6.0263   41.8740 H   0  0  0  0  0  0  0  0  0  0  0  0
   -8.0118   -7.0616   38.2765 C   0  0  0  0  0  0  0  0  0  0  0  0
   -8.0871   -8.1017   37.2009 C   0  0  0  0  0  0  0  0  0  0  0  0
   -9.1272   -9.0036   37.0117 C   0  0  0  0  0  0  0  0  0  0  0  0
   -8.9292   -9.8507   35.9134 C   0  0  0  0  0  0  0  0  0  0  0  0
   -7.7346   -9.6224   35.2413 C   0  0  0  0  0  0  0  0  0  0  0  0
   -6.9244   -8.3634   36.0127 S   0  0  0  0  0  0  0  0  0  0  0  0
  6  7  1  0  0  0
  7  8  2  0  0  0
  8  9  1  0  0  0
  9 10  2  0  0  0
 10  1  1  0  0  0
  1  2  1  0  0  0
  2  3  2  0  0  0
  2  4  1  0  0  0
  4 14  1  0  0  0
 14 15  1  0  0  0
 15 16  1  0  0  0
 16 17  1  0  0  0
 17 18  1  0  0  0
 18 19  1  0  0  0
 19 20  1  0  0  0
 20 21  1  0  0  0
 21 22  1  0  0  0
  4 24  1  0  0  0
 24 25  1  0  0  0
 25 26  2  0  0  0
 26 27  1  0  0  0
 27 28  2  0  0  0
 28 29  1  0  0  0
 10 11  1  0  0  0
 11 12  2  0  0  0
 12 13  1  0  0  0
 12  7  1  0  0  0
 22 17  1  0  0  0
 29 25  1  0  0  0
  1  5  1  0  0  0
 17 23  1  0  0  0
M  CHG 1  17   1
M  END
> <minimizedAffinity>
-7.00572

> <newdefault_CNNaffinity>
7.00123

> <newdefault_CNNscore>
0.842675

> <CNNaffinity_times_score>
5.899761

> <protein>
3ril

$$$$
14738324


 34 36  0  0  0  0  0  0  0  0999 V2000
  -36.2710  -16.6728    5.3615 N   0  0  0  0  0  0  0  0  0  0  0  0
  -32.0852  -15.8723    5.4873 C   0  0  0  0  0  0  0  0  0  0  0  0
  -32.9852  -14.8831    5.0805 C   0  0  0  0  0  0  0  0  0  0  0  0
  -34.3573  -15.1401    5.0503 C   0  0  0  0  0  0  0  0  0  0  0  0
  -34.8564  -16.3985    5.4260 C   0  0  0  0  0  0  0  0  0  0  0  0
  -33.9527  -17.3892    5.8479 C   0  0  0  0  0  0  0  0  0  0  0  0
  -32.5795  -17.1326    5.8733 C   0  0  0  0  0  0  0  0  0  0  0  0
  -30.7163  -15.5647    5.5003 O   0  0  0  0  0  0  0  0  0  0  0  0
  -28.7144  -16.7369    4.8418 C   0  0  0  0  0  0  0  0  0  0  0  0
  -29.6995  -16.4505    5.9642 C   0  0  0  0  0  0  0  0  0  0  0  0
  -37.2036  -16.7657    6.8317 S   0  0  0  0  0  0  0  0  0  0  0  0
  -36.4078  -16.2234    7.9882 O   0  0  0  0  0  0  0  0  0  0  0  0
  -38.4386  -15.9222    6.6810 O   0  0  0  0  0  0  0  0  0  0  0  0
  -37.6100  -18.4609    7.1856 C   0  0  0  0  0  0  0  0  0  0  0  0
  -36.9055  -19.1959    8.1664 C   0  0  0  0  0  0  0  0  0  0  0  0
  -35.7482  -18.6201    8.9318 C   0  0  0  0  0  0  0  0  0  0  0  0
  -37.2568  -20.4856    8.4134 N   0  0  0  0  0  0  0  0  0  0  0  0
  -38.2638  -21.0915    7.7372 C   0  0  0  0  0  0  0  0  0  0  0  0
  -38.5998  -22.4081    8.0223 O   0  0  0  0  0  0  0  0  0  0  0  0
  -38.9432  -20.4132    6.7829 N   0  0  0  0  0  0  0  0  0  0  0  0
  -38.6417  -19.1226    6.4900 C   0  0  0  0  0  0  0  0  0  0  0  0
  -39.3661  -18.4798    5.4948 O   0  0  0  0  0  0  0  0  0  0  0  0
  -36.9313  -16.9529    4.0780 C   0  0  0  0  0  0  0  0  0  0  0  0
  -36.2904  -18.1278    3.3889 C   0  0  0  0  0  0  0  0  0  0  0  0
  -36.1765  -19.2121    4.0223 O   0  0  0  0  0  0  0  0  0  0  0  0
  -35.8277  -18.0653    2.0283 N   0  0  0  0  0  0  0  0  0  0  0  0
  -35.6958  -18.9154    1.5497 H   0  0  0  0  0  0  0  0  0  0  0  0
  -35.5385  -16.8215    1.3042 C   0  0  0  0  0  0  0  0  0  0  0  0
  -34.0742  -16.4156    1.5526 C   0  0  0  0  0  0  0  0  0  0  0  0
  -33.7978  -14.9560    1.1612 C   0  0  0  0  0  0  0  0  0  0  0  0
  -33.3611  -14.7668   -0.3002 C   0  0  0  0  0  0  0  0  0  0  0  0
  -34.2032  -15.4772   -1.3828 C   0  0  0  0  0  0  0  0  0  0  0  0
  -35.6721  -15.7477   -1.0193 C   0  0  0  0  0  0  0  0  0  0  0  0
  -35.8362  -17.0297   -0.1873 C   0  0  0  0  0  0  0  0  0  0  0  0
  9 10  1  0  0  0
 10  8  1  0  0  0
  8  2  1  0  0  0
  2  3  2  0  0  0
  3  4  1  0  0  0
  4  5  2  0  0  0
  5  6  1  0  0  0
  6  7  2  0  0  0
  5  1  1  0  0  0
  1 23  1  0  0  0
 23 24  1  0  0  0
 24 25  2  0  0  0
 24 26  1  0  0  0
 26 28  1  0  0  0
 28 29  1  0  0  0
 29 30  1  0  0  0
 30 31  1  0  0  0
 31 32  1  0  0  0
 32 33  1  0  0  0
 33 34  1  0  0  0
  1 11  1  0  0  0
 11 12  2  0  0  0
 11 13  2  0  0  0
 11 14  1  0  0  0
 14 15  2  0  0  0
 15 16  1  0  0  0
 15 17  1  0  0  0
 17 18  2  0  0  0
 18 19  1  0  0  0
 18 20  1  0  0  0
 20 21  2  0  0  0
 21 22  1  0  0  0
  7  2  1  0  0  0
 34 28  1  0  0  0
 21 14  1  0  0  0
 26 27  1  0  0  0
M  CHG 1  19  -1
M  CHG 1  22  -1
M  END
> <minimizedAffinity>
-7.35608

> <newdefault_CNNaffinity>
6.79087

> <newdefault_CNNscore>
0.623502

> <CNNaffinity_times_score>
4.2341213

> <protein>
2xwd

$$$$
14738326


 31 33  0  0  0  0  0  0  0  0999 V2000
    1.8219  -23.4758   31.5763 N   0  0  0  0  0  0  0  0  0  0  0  0
   -1.1107  -25.0391   28.9133 C   0  0  0  0  0  0  0  0  0  0  0  0
   -0.0210  -25.8238   29.3077 C   0  0  0  0  0  0  0  0  0  0  0  0
    0.9422  -25.3137   30.1824 C   0  0  0  0  0  0  0  0  0  0  0  0
    0.8264  -24.0072   30.6831 C   0  0  0  0  0  0  0  0  0  0  0  0
   -0.2596  -23.2150   30.2806 C   0  0  0  0  0  0  0  0  0  0  0  0
   -1.2241  -23.7254   29.4064 C   0  0  0  0  0  0  0  0  0  0  0  0
   -2.2461  -25.1701   26.6892 C   0  0  0  0  0  0  0  0  0  0  0  0
   -2.0509  -25.5967   28.0336 O   0  0  0  0  0  0  0  0  0  0  0  0
    1.5264  -23.4603   33.2958 S   0  0  0  0  0  0  0  0  0  0  0  0
    2.8132  -23.7860   34.0013 O   0  0  0  0  0  0  0  0  0  0  0  0
    0.5174  -24.5150   33.6559 O   0  0  0  0  0  0  0  0  0  0  0  0
    0.8818  -21.8845   33.8110 C   0  0  0  0  0  0  0  0  0  0  0  0
   -0.5077  -21.6196   33.8023 C   0  0  0  0  0  0  0  0  0  0  0  0
   -1.5240  -22.6681   33.4541 C   0  0  0  0  0  0  0  0  0  0  0  0
   -0.9577  -20.3880   34.1624 N   0  0  0  0  0  0  0  0  0  0  0  0
   -0.1054  -19.4022   34.5335 C   0  0  0  0  0  0  0  0  0  0  0  0
   -0.5983  -18.1517   34.8774 O   0  0  0  0  0  0  0  0  0  0  0  0
    1.2276  -19.6390   34.5751 N   0  0  0  0  0  0  0  0  0  0  0  0
    1.7385  -20.8493   34.2355 C   0  0  0  0  0  0  0  0  0  0  0  0
    3.1120  -21.0385   34.3184 O   0  0  0  0  0  0  0  0  0  0  0  0
    3.1650  -23.1688   31.0702 C   0  0  0  0  0  0  0  0  0  0  0  0
    3.1714  -21.8685   30.3084 C   0  0  0  0  0  0  0  0  0  0  0  0
    3.0777  -20.7916   30.9554 O   0  0  0  0  0  0  0  0  0  0  0  0
    3.2702  -21.8050   28.8751 N   0  0  0  0  0  0  0  0  0  0  0  0
    3.3934  -20.9202   28.4614 H   0  0  0  0  0  0  0  0  0  0  0  0
    3.1992  -22.9745   27.9871 C   0  0  0  0  0  0  0  0  0  0  0  0
    4.2121  -22.8602   26.8492 C   0  0  0  0  0  0  0  0  0  0  0  0
    3.4701  -22.1733   25.7195 C   0  0  0  0  0  0  0  0  0  0  0  0
    2.0246  -22.6288   25.8495 C   0  0  0  0  0  0  0  0  0  0  0  0
    1.8279  -23.0527   27.3041 C   0  0  0  0  0  0  0  0  0  0  0  0
  8  9  1  0  0  0
  9  2  1  0  0  0
  2  3  2  0  0  0
  3  4  1  0  0  0
  4  5  2  0  0  0
  5  6  1  0  0  0
  6  7  2  0  0  0
  5  1  1  0  0  0
  1 22  1  0  0  0
 22 23  1  0  0  0
 23 24  2  0  0  0
 23 25  1  0  0  0
 25 27  1  0  0  0
 27 28  1  0  0  0
 28 29  1  0  0  0
 29 30  1  0  0  0
 30 31  1  0  0  0
  1 10  1  0  0  0
 10 11  2  0  0  0
 10 12  2  0  0  0
 10 13  1  0  0  0
 13 14  2  0  0  0
 14 15  1  0  0  0
 14 16  1  0  0  0
 16 17  2  0  0  0
 17 18  1  0  0  0
 17 19  1  0  0  0
 19 20  2  0  0  0
 20 21  1  0  0  0
  7  2  1  0  0  0
 31 27  1  0  0  0
 20 13  1  0  0  0
 25 26  1  0  0  0
M  CHG 1  18  -1
M  CHG 1  21  -1
M  END
> <minimizedAffinity>
-6.17300

> <newdefault_CNNaffinity>
5.37532

> <newdefault_CNNscore>
0.541357

> <CNNaffinity_times_score>
2.909967

> <protein>
3rik

$$$$
14738425


 23 25  0  0  0  0  0  0  0  0999 V2000
  -34.3849  -17.3899    3.5525 C   0  0  0  0  0  0  0  0  0  0  0  0
  -33.3296  -16.5903    3.9786 C   0  0  0  0  0  0  0  0  0  0  0  0
  -32.9887  -15.7255    2.9921 N   0  0  0  0  0  0  0  0  0  0  0  0
  -33.8307  -16.0404    1.9854 C   0  0  0  0  0  0  0  0  0  0  0  0
  -33.8581  -15.4319    0.7323 C   0  0  0  0  0  0  0  0  0  0  0  0
  -34.7931  -15.9024   -0.2027 C   0  0  0  0  0  0  0  0  0  0  0  0
  -35.6599  -16.9613    0.1300 C   0  0  0  0  0  0  0  0  0  0  0  0
  -36.9149  -17.6190   -1.1497 Br  0  0  0  0  0  0  0  0  0  0  0  0
  -35.5881  -17.5368    1.4073 C   0  0  0  0  0  0  0  0  0  0  0  0
  -34.6828  -17.0366    2.2897 N   0  0  0  0  0  0  0  0  0  0  0  0
  -32.6926  -16.5813    5.3087 C   0  0  0  0  0  0  0  0  0  0  0  0
  -31.3241  -16.8637    5.4567 C   0  0  0  0  0  0  0  0  0  0  0  0
  -30.7315  -16.8331    6.7231 C   0  0  0  0  0  0  0  0  0  0  0  0
  -31.4958  -16.5081    7.8468 C   0  0  0  0  0  0  0  0  0  0  0  0
  -32.8519  -16.2029    7.7047 C   0  0  0  0  0  0  0  0  0  0  0  0
  -33.4478  -16.2313    6.4399 C   0  0  0  0  0  0  0  0  0  0  0  0
  -35.1450  -18.3007    4.3617 N   0  0  0  0  0  0  0  0  0  0  0  0
  -34.7907  -19.2057    4.5193 H   0  0  0  0  0  0  0  0  0  0  0  0
  -36.4262  -17.9308    4.9594 C   0  0  0  0  0  0  0  0  0  0  0  0
  -37.4335  -19.0110    4.7295 C   0  0  0  0  0  0  0  0  0  0  0  0
  -38.5596  -18.7230    4.2394 O   0  0  0  0  0  0  0  0  0  0  0  0
  -37.6241  -20.9889    6.2028 C   0  0  0  0  0  0  0  0  0  0  0  0
  -37.1125  -20.3334    5.0490 O   0  0  0  0  0  0  0  0  0  0  0  0
 22 23  1  0  0  0
 23 20  1  0  0  0
 20 21  2  0  0  0
 20 19  1  0  0  0
 19 17  1  0  0  0
 17  1  1  0  0  0
  1  2  2  0  0  0
  2  3  1  0  0  0
  3  4  2  0  0  0
  4  5  1  0  0  0
  5  6  2  0  0  0
  6  7  1  0  0  0
  7  8  1  0  0  0
  7  9  2  0  0  0
  9 10  1  0  0  0
  2 11  1  0  0  0
 11 12  2  0  0  0
 12 13  1  0  0  0
 13 14  2  0  0  0
 14 15  1  0  0  0
 15 16  2  0  0  0
 10  1  1  0  0  0
 10  4  1  0  0  0
 16 11  1  0  0  0
 17 18  1  0  0  0
M  END
> <minimizedAffinity>
-7.45276

> <newdefault_CNNaffinity>
5.47374

> <newdefault_CNNscore>
0.222812

> <CNNaffinity_times_score>
1.219615

> <protein>
2xwe

$$$$
14743426


 35 39  0  0  0  0  0  0  0  0999 V2000
  -11.0160   -6.7358   40.8096 N   0  0  0  0  0  0  0  0  0  0  0  0
  -10.9481   -5.3702   40.6312 C   0  0  0  0  0  0  0  0  0  0  0  0
  -10.0232   -4.8104   39.8062 N   0  0  0  0  0  0  0  0  0  0  0  0
   -9.1704   -5.6131   39.1359 C   0  0  0  0  0  0  0  0  0  0  0  0
   -9.2150   -6.9747   39.2485 C   0  0  0  0  0  0  0  0  0  0  0  0
  -10.1229   -7.5706   40.1485 C   0  0  0  0  0  0  0  0  0  0  0  0
  -10.0735   -8.8530   40.3960 N   0  0  0  0  0  0  0  0  0  0  0  0
   -8.2539   -7.4636   38.3608 C   0  0  0  0  0  0  0  0  0  0  0  0
   -7.6577   -6.3376   37.7890 C   0  0  0  0  0  0  0  0  0  0  0  0
   -8.2312   -5.2044   38.2622 N   0  0  0  0  0  0  0  0  0  0  0  0
   -9.4316   -9.4231   39.9140 H   0  0  0  0  0  0  0  0  0  0  0  0
  -10.6782   -9.2490   41.0644 H   0  0  0  0  0  0  0  0  0  0  0  0
   -8.0234   -8.8522   37.9187 C   0  0  0  0  0  0  0  0  0  0  0  0
   -8.8591   -9.4349   36.9519 C   0  0  0  0  0  0  0  0  0  0  0  0
   -8.6113  -10.7347   36.5007 C   0  0  0  0  0  0  0  0  0  0  0  0
   -7.5223  -11.4542   37.0013 C   0  0  0  0  0  0  0  0  0  0  0  0
   -6.6779  -10.8737   37.9520 C   0  0  0  0  0  0  0  0  0  0  0  0
   -6.9234   -9.5746   38.4070 C   0  0  0  0  0  0  0  0  0  0  0  0
   -6.6369   -6.3691   36.7277 C   0  0  0  0  0  0  0  0  0  0  0  0
   -6.9958   -6.7103   35.4161 C   0  0  0  0  0  0  0  0  0  0  0  0
   -6.0294   -6.7260   34.4062 C   0  0  0  0  0  0  0  0  0  0  0  0
   -4.7045   -6.3898   34.6998 C   0  0  0  0  0  0  0  0  0  0  0  0
   -4.3455   -6.0342   36.0035 C   0  0  0  0  0  0  0  0  0  0  0  0
   -5.3094   -6.0205   37.0163 C   0  0  0  0  0  0  0  0  0  0  0  0
  -12.0574   -7.2464   41.7249 C   0  0  0  0  0  0  0  0  0  0  0  0
  -13.9511   -8.6997   41.5464 O   0  0  0  0  0  0  0  0  0  0  0  0
  -13.3356   -7.5887   40.9573 C   0  0  0  0  0  0  0  0  0  0  0  0
  -14.7615   -8.9164   41.0594 H   0  0  0  0  0  0  0  0  0  0  0  0
   -7.9524   -3.8229   37.8558 C   0  0  0  0  0  0  0  0  0  0  0  0
   -8.2086   -3.6379   36.3837 C   0  0  0  0  0  0  0  0  0  0  0  0
   -9.4295   -4.0422   35.8163 C   0  0  0  0  0  0  0  0  0  0  0  0
   -9.6605   -3.8739   34.4477 C   0  0  0  0  0  0  0  0  0  0  0  0
   -8.6815   -3.2917   33.6384 C   0  0  0  0  0  0  0  0  0  0  0  0
   -7.4708   -2.8737   34.1970 C   0  0  0  0  0  0  0  0  0  0  0  0
   -7.2346   -3.0418   35.5647 C   0  0  0  0  0  0  0  0  0  0  0  0
 26 27  1  0  0  0
 27 25  1  0  0  0
 25  1  1  0  0  0
  1  2  1  0  0  0
  2  3  2  0  0  0
  3  4  1  0  0  0
  4  5  2  0  0  0
  5  6  1  0  0  0
  6  7  2  0  0  0
  5  8  1  0  0  0
  8 13  1  0  0  0
 13 14  2  0  0  0
 14 15  1  0  0  0
 15 16  2  0  0  0
 16 17  1  0  0  0
 17 18  2  0  0  0
  8  9  2  0  0  0
  9 19  1  0  0  0
 19 20  2  0  0  0
 20 21  1  0  0  0
 21 22  2  0  0  0
 22 23  1  0  0  0
 23 24  2  0  0  0
  9 10  1  0  0  0
 10 29  1  0  0  0
 29 30  1  0  0  0
 30 31  2  0  0  0
 31 32  1  0  0  0
 32 33  2  0  0  0
 33 34  1  0  0  0
 34 35  2  0  0  0
  6  1  1  0  0  0
 10  4  1  0  0  0
 18 13  1  0  0  0
 24 19  1  0  0  0
 35 30  1  0  0  0
 26 28  1  0  0  0
  7 11  1  0  0  0
  7 12  1  0  0  0
M  CHG 1   7   1
M  END
> <minimizedAffinity>
-8.79325

> <newdefault_CNNaffinity>
6.65078

> <newdefault_CNNscore>
0.583751

> <CNNaffinity_times_score>
3.8823998

> <protein>
3ril

$$$$
14746243


 30 33  0  0  0  0  0  0  0  0999 V2000
  -34.8248  -17.2553    3.3655 C   0  0  0  0  0  0  0  0  0  0  0  0
  -33.4992  -17.0813    3.6280 N   0  0  0  0  0  0  0  0  0  0  0  0
  -33.0611  -16.6652    4.8434 C   0  0  0  0  0  0  0  0  0  0  0  0
  -31.6953  -16.4869    5.0879 C   0  0  0  0  0  0  0  0  0  0  0  0
  -31.2646  -16.0591    6.3489 C   0  0  0  0  0  0  0  0  0  0  0  0
  -32.1965  -15.8101    7.3638 C   0  0  0  0  0  0  0  0  0  0  0  0
  -33.5636  -15.9880    7.1229 C   0  0  0  0  0  0  0  0  0  0  0  0
  -33.9975  -16.4162    5.8636 C   0  0  0  0  0  0  0  0  0  0  0  0
  -35.3188  -16.5929    5.6090 N   0  0  0  0  0  0  0  0  0  0  0  0
  -35.7637  -17.0152    4.3924 C   0  0  0  0  0  0  0  0  0  0  0  0
  -35.2400  -17.7527    2.0819 N   0  0  0  0  0  0  0  0  0  0  0  0
  -35.5296  -18.6915    2.0182 H   0  0  0  0  0  0  0  0  0  0  0  0
  -35.1857  -14.6375   -2.6239 O   0  0  0  0  0  0  0  0  0  0  0  0
  -35.2141  -15.4124   -1.4666 C   0  0  0  0  0  0  0  0  0  0  0  0
  -34.1721  -15.3086   -0.5400 C   0  0  0  0  0  0  0  0  0  0  0  0
  -34.1882  -16.0801    0.6259 C   0  0  0  0  0  0  0  0  0  0  0  0
  -35.2552  -16.9540    0.8861 C   0  0  0  0  0  0  0  0  0  0  0  0
  -36.2913  -17.0696   -0.0592 C   0  0  0  0  0  0  0  0  0  0  0  0
  -36.2728  -16.2976   -1.2249 C   0  0  0  0  0  0  0  0  0  0  0  0
  -34.4730  -14.0485   -2.7759 H   0  0  0  0  0  0  0  0  0  0  0  0
  -37.1759  -17.1337    4.1494 N   0  0  0  0  0  0  0  0  0  0  0  0
  -37.5851  -16.5357    3.4830 H   0  0  0  0  0  0  0  0  0  0  0  0
  -38.0232  -18.0779    4.8267 C   0  0  0  0  0  0  0  0  0  0  0  0
  -38.3689  -19.2782    4.1866 C   0  0  0  0  0  0  0  0  0  0  0  0
  -39.1752  -20.2195    4.8335 C   0  0  0  0  0  0  0  0  0  0  0  0
  -39.6327  -19.9796    6.1327 C   0  0  0  0  0  0  0  0  0  0  0  0
  -40.4360  -20.9259    6.7653 O   0  0  0  0  0  0  0  0  0  0  0  0
  -39.2750  -18.7936    6.7870 C   0  0  0  0  0  0  0  0  0  0  0  0
  -38.4693  -17.8503    6.1418 C   0  0  0  0  0  0  0  0  0  0  0  0
  -40.6694  -21.7159    6.3188 H   0  0  0  0  0  0  0  0  0  0  0  0
 13 14  1  0  0  0
 14 15  2  0  0  0
 15 16  1  0  0  0
 16 17  2  0  0  0
 17 11  1  0  0  0
 11  1  1  0  0  0
  1  2  2  0  0  0
  2  3  1  0  0  0
  3  4  2  0  0  0
  4  5  1  0  0  0
  5  6  2  0  0  0
  6  7  1  0  0  0
  7  8  2  0  0  0
  8  9  1  0  0  0
  9 10  2  0  0  0
 10 21  1  0  0  0
 21 23  1  0  0  0
 23 24  2  0  0  0
 24 25  1  0  0  0
 25 26  2  0  0  0
 26 27  1  0  0  0
 26 28  1  0  0  0
 28 29  2  0  0  0
 17 18  1  0  0  0
 18 19  2  0  0  0
 19 14  1  0  0  0
 10  1  1  0  0  0
  8  3  1  0  0  0
 29 23  1  0  0  0
 13 20  1  0  0  0
 11 12  1  0  0  0
 21 22  1  0  0  0
 27 30  1  0  0  0
M  END
> <minimizedAffinity>
-8.34070

> <newdefault_CNNaffinity>
6.21239

> <newdefault_CNNscore>
0.392731

> <CNNaffinity_times_score>
2.439798

> <protein>
2xwd

$$$$
16952736


 36 40  0  0  0  0  0  0  0  0999 V2000
   35.7429   30.9148   -5.4983 C   0  0  0  0  0  0  0  0  0  0  0  0
   36.6900   31.3331   -6.3759 N   0  0  0  0  0  0  0  0  0  0  0  0
   37.3616   32.4947   -6.1974 C   0  0  0  0  0  0  0  0  0  0  0  0
   38.3298   32.8937   -7.1264 C   0  0  0  0  0  0  0  0  0  0  0  0
   39.0100   34.1028   -6.9532 C   0  0  0  0  0  0  0  0  0  0  0  0
   38.7211   34.9181   -5.8555 C   0  0  0  0  0  0  0  0  0  0  0  0
   37.7554   34.5253   -4.9229 C   0  0  0  0  0  0  0  0  0  0  0  0
   37.0687   33.3073   -5.0881 C   0  0  0  0  0  0  0  0  0  0  0  0
   36.0868   32.8683   -4.1832 C   0  0  0  0  0  0  0  0  0  0  0  0
   35.7933   33.5883   -3.1873 O   0  0  0  0  0  0  0  0  0  0  0  0
   35.4449   31.6684   -4.3843 N   0  0  0  0  0  0  0  0  0  0  0  0
   34.8540   29.3969   -5.8926 S   0  0  0  0  0  0  0  0  0  0  0  0
   36.0027   28.8741   -7.2061 C   0  0  0  0  0  0  0  0  0  0  0  0
   37.0023   27.9280   -6.6227 C   0  0  0  0  0  0  0  0  0  0  0  0
   36.8770   27.5776   -5.4182 O   0  0  0  0  0  0  0  0  0  0  0  0
   39.8987   29.0799   -7.0762 C   0  0  0  0  0  0  0  0  0  0  0  0
   39.3461   27.8169   -7.6588 C   0  0  0  0  0  0  0  0  0  0  0  0
   40.0613   26.9865   -8.4519 N   0  0  0  0  0  0  0  0  0  0  0  0
   39.2390   25.9662   -8.7516 C   0  0  0  0  0  0  0  0  0  0  0  0
   39.5231   24.8693   -9.5682 C   0  0  0  0  0  0  0  0  0  0  0  0
   38.5011   23.9291   -9.7902 C   0  0  0  0  0  0  0  0  0  0  0  0
   37.2268   24.1124   -9.2090 C   0  0  0  0  0  0  0  0  0  0  0  0
   36.9665   25.2286   -8.3897 C   0  0  0  0  0  0  0  0  0  0  0  0
   38.0083   26.1309   -8.1627 C   0  0  0  0  0  0  0  0  0  0  0  0
   38.0613   27.3134   -7.4439 C   0  0  0  0  0  0  0  0  0  0  0  0
   40.9926   27.1050   -8.7486 H   0  0  0  0  0  0  0  0  0  0  0  0
   34.4065   31.2222   -3.4336 C   0  0  0  0  0  0  0  0  0  0  0  0
   35.0285   30.3555   -2.3278 C   0  0  0  0  0  0  0  0  0  0  0  0
   35.0009   31.0363   -0.9417 C   0  0  0  0  0  0  0  0  0  0  0  0
   36.2204   31.8405   -0.6419 N   0  0  0  0  0  0  0  0  0  0  0  0
   37.3133   31.0467   -0.0300 C   0  0  0  0  0  0  0  0  0  0  0  0
   37.0504   30.7414    1.4578 C   0  0  0  0  0  0  0  0  0  0  0  0
   36.8212   31.9292    2.1896 O   0  0  0  0  0  0  0  0  0  0  0  0
   35.6784   32.5850    1.6796 C   0  0  0  0  0  0  0  0  0  0  0  0
   35.9036   33.0038    0.2179 C   0  0  0  0  0  0  0  0  0  0  0  0
   36.5570   32.1705   -1.5464 H   0  0  0  0  0  0  0  0  0  0  0  0
 16 17  1  0  0  0
 17 18  1  0  0  0
 18 19  1  0  0  0
 19 20  2  0  0  0
 20 21  1  0  0  0
 21 22  2  0  0  0
 22 23  1  0  0  0
 23 24  2  0  0  0
 24 25  1  0  0  0
 25 14  1  0  0  0
 14 15  2  0  0  0
 14 13  1  0  0  0
 13 12  1  0  0  0
 12  1  1  0  0  0
  1  2  2  0  0  0
  2  3  1  0  0  0
  3  4  2  0  0  0
  4  5  1  0  0  0
  5  6  2  0  0  0
  6  7  1  0  0  0
  7  8  2  0  0  0
  8  9  1  0  0  0
  9 10  2  0  0  0
  9 11  1  0  0  0
 11 27  1  0  0  0
 27 28  1  0  0  0
 28 29  1  0  0  0
 29 30  1  0  0  0
 30 31  1  0  0  0
 31 32  1  0  0  0
 32 33  1  0  0  0
 33 34  1  0  0  0
 34 35  1  0  0  0
 25 17  2  0  0  0
 24 19  1  0  0  0
 11  1  1  0  0  0
  8  3  1  0  0  0
 35 30  1  0  0  0
 18 26  1  0  0  0
 30 36  1  0  0  0
M  CHG 1  30   1
M  END
> <minimizedAffinity>
-8.61377

> <newdefault_CNNaffinity>
7.37912

> <newdefault_CNNscore>
0.784403

> <CNNaffinity_times_score>
5.788204

> <protein>
2v3d

$$$$
16952960


 30 34  0  0  0  0  0  0  0  0999 V2000
   -0.7943   -1.7248   39.7052 C   0  0  0  0  0  0  0  0  0  0  0  0
    0.0731   -2.4812   40.6674 C   0  0  0  0  0  0  0  0  0  0  0  0
   -0.4672   -3.5689   41.3878 C   0  0  0  0  0  0  0  0  0  0  0  0
    0.3416   -4.2813   42.2856 C   0  0  0  0  0  0  0  0  0  0  0  0
    1.6323   -3.8855   42.4463 N   0  0  0  0  0  0  0  0  0  0  0  0
    2.6329   -4.3878   43.1923 C   0  0  0  0  0  0  0  0  0  0  0  0
    3.7832   -3.6571   42.9151 C   0  0  0  0  0  0  0  0  0  0  0  0
    3.4962   -2.6954   42.0034 N   0  0  0  0  0  0  0  0  0  0  0  0
    2.1811   -2.8707   41.7527 C   0  0  0  0  0  0  0  0  0  0  0  0
    1.4253   -2.1276   40.8469 C   0  0  0  0  0  0  0  0  0  0  0  0
    5.1289   -3.8421   43.5009 C   0  0  0  0  0  0  0  0  0  0  0  0
    5.9929   -4.8496   43.0357 C   0  0  0  0  0  0  0  0  0  0  0  0
    7.2579   -5.0160   43.6079 C   0  0  0  0  0  0  0  0  0  0  0  0
    7.6707   -4.1897   44.6576 C   0  0  0  0  0  0  0  0  0  0  0  0
    8.9343   -4.3668   45.2176 O   0  0  0  0  0  0  0  0  0  0  0  0
    6.8087   -3.1959   45.1387 C   0  0  0  0  0  0  0  0  0  0  0  0
    5.5430   -3.0272   44.5684 C   0  0  0  0  0  0  0  0  0  0  0  0
    9.5032   -5.0345   44.8884 H   0  0  0  0  0  0  0  0  0  0  0  0
    2.5561   -5.5692   44.0014 N   0  0  0  0  0  0  0  0  0  0  0  0
    2.1048   -5.5266   44.8753 H   0  0  0  0  0  0  0  0  0  0  0  0
    3.1349   -6.8368   43.5546 C   0  0  0  0  0  0  0  0  0  0  0  0
    2.1653   -7.5736   42.6692 C   0  0  0  0  0  0  0  0  0  0  0  0
    0.8169   -7.7575   43.0728 C   0  0  0  0  0  0  0  0  0  0  0  0
   -0.0810   -8.4709   42.2570 C   0  0  0  0  0  0  0  0  0  0  0  0
    0.3973   -8.9800   41.0535 C   0  0  0  0  0  0  0  0  0  0  0  0
   -0.2822   -9.7073   40.0942 O   0  0  0  0  0  0  0  0  0  0  0  0
    0.6345  -10.0051   39.0314 C   0  0  0  0  0  0  0  0  0  0  0  0
    1.8783   -9.4151   39.4358 O   0  0  0  0  0  0  0  0  0  0  0  0
    1.6842   -8.8064   40.6615 C   0  0  0  0  0  0  0  0  0  0  0  0
    2.6062   -8.1111   41.4391 C   0  0  0  0  0  0  0  0  0  0  0  0
  1  2  1  0  0  0
  2  3  1  0  0  0
  3  4  2  0  0  0
  4  5  1  0  0  0
  5  6  1  0  0  0
  6 19  1  0  0  0
 19 21  1  0  0  0
 21 22  1  0  0  0
 22 23  2  0  0  0
 23 24  1  0  0  0
 24 25  2  0  0  0
 25 26  1  0  0  0
 26 27  1  0  0  0
 27 28  1  0  0  0
 28 29  1  0  0  0
 29 30  2  0  0  0
  6  7  2  0  0  0
  7  8  1  0  0  0
  8  9  2  0  0  0
  9 10  1  0  0  0
  7 11  1  0  0  0
 11 12  2  0  0  0
 12 13  1  0  0  0
 13 14  2  0  0  0
 14 15  1  0  0  0
 14 16  1  0  0  0
 16 17  2  0  0  0
 10  2  2  0  0  0
  9  5  1  0  0  0
 30 22  1  0  0  0
 29 25  1  0  0  0
 17 11  1  0  0  0
 19 20  1  0  0  0
 15 18  1  0  0  0
M  END
> <minimizedAffinity>
-5.95319

> <newdefault_CNNaffinity>
5.80008

> <newdefault_CNNscore>
0.520117

> <CNNaffinity_times_score>
3.01672

> <protein>
3rik

$$$$
17388119


 23 26  0  0  0  0  0  0  0  0999 V2000
  -37.8789  -17.3720    5.7317 C   0  0  0  0  0  0  0  0  0  0  0  0
  -37.4584  -16.0215    6.8881 S   0  0  0  0  0  0  0  0  0  0  0  0
  -37.6053  -14.7710    5.6224 C   0  0  0  0  0  0  0  0  0  0  0  0
  -38.6946  -13.8914    5.6400 C   0  0  0  0  0  0  0  0  0  0  0  0
  -38.7965  -12.8842    4.6768 C   0  0  0  0  0  0  0  0  0  0  0  0
  -37.8105  -12.7544    3.6957 C   0  0  0  0  0  0  0  0  0  0  0  0
  -36.7304  -13.6417    3.6677 C   0  0  0  0  0  0  0  0  0  0  0  0
  -36.6341  -14.6713    4.6167 C   0  0  0  0  0  0  0  0  0  0  0  0
  -35.5325  -15.5877    4.5558 N   0  0  0  0  0  0  0  0  0  0  0  0
  -35.6766  -17.0147    4.4268 C   0  0  0  0  0  0  0  0  0  0  0  0
  -36.6711  -17.7839    4.9051 C   0  0  0  0  0  0  0  0  0  0  0  0
  -36.4078  -19.1203    4.3868 C   0  0  0  0  0  0  0  0  0  0  0  0
  -37.1505  -20.1276    4.5246 O   0  0  0  0  0  0  0  0  0  0  0  0
  -35.2326  -19.1399    3.6653 O   0  0  0  0  0  0  0  0  0  0  0  0
  -34.6766  -17.8341    3.6555 C   0  0  0  0  0  0  0  0  0  0  0  0
  -34.6213  -15.2182    4.6052 H   0  0  0  0  0  0  0  0  0  0  0  0
  -39.9653  -21.6829    8.7884 F   0  0  0  0  0  0  0  0  0  0  0  0
  -39.4662  -20.6538    8.0603 C   0  0  0  0  0  0  0  0  0  0  0  0
  -38.2271  -20.0997    8.3917 C   0  0  0  0  0  0  0  0  0  0  0  0
  -37.7107  -19.0389    7.6423 C   0  0  0  0  0  0  0  0  0  0  0  0
  -38.4310  -18.5223    6.5474 C   0  0  0  0  0  0  0  0  0  0  0  0
  -39.6790  -19.0857    6.2256 C   0  0  0  0  0  0  0  0  0  0  0  0
  -40.1913  -20.1466    6.9787 C   0  0  0  0  0  0  0  0  0  0  0  0
 17 18  1  0  0  0
 18 19  2  0  0  0
 19 20  1  0  0  0
 20 21  2  0  0  0
 21 22  1  0  0  0
 22 23  2  0  0  0
  1 21  1  0  0  0
  1  2  1  0  0  0
  2  3  1  0  0  0
  3  4  2  0  0  0
  4  5  1  0  0  0
  5  6  2  0  0  0
  6  7  1  0  0  0
  7  8  2  0  0  0
  8  9  1  0  0  0
  9 10  1  0  0  0
 10 11  2  0  0  0
 11 12  1  0  0  0
 12 13  2  0  0  0
 12 14  1  0  0  0
 14 15  1  0  0  0
 23 18  1  0  0  0
 11  1  1  0  0  0
  8  3  1  0  0  0
 15 10  1  0  0  0
  9 16  1  0  0  0
M  END
> <minimizedAffinity>
-6.97002

> <newdefault_CNNaffinity>
5.42523

> <newdefault_CNNscore>
0.626947

> <CNNaffinity_times_score>
3.4013317

> <protein>
2xwe

$$$$
17403110


 24 27  0  0  0  0  0  0  0  0999 V2000
   36.9279   31.3310    1.1947 Cl  0  0  0  0  0  0  0  0  0  0  0  0
   35.8156   31.7167   -0.1050 C   0  0  0  0  0  0  0  0  0  0  0  0
   34.4873   32.0862    0.1827 C   0  0  0  0  0  0  0  0  0  0  0  0
   33.5963   32.3925   -0.8575 C   0  0  0  0  0  0  0  0  0  0  0  0
   34.0742   32.3192   -2.1642 C   0  0  0  0  0  0  0  0  0  0  0  0
   33.3542   32.5625   -3.2771 N   0  0  0  0  0  0  0  0  0  0  0  0
   34.2413   32.3583   -4.2809 C   0  0  0  0  0  0  0  0  0  0  0  0
   35.4780   31.9791   -3.7560 C   0  0  0  0  0  0  0  0  0  0  0  0
   35.3469   31.9661   -2.4170 N   0  0  0  0  0  0  0  0  0  0  0  0
   36.2420   31.6577   -1.4404 C   0  0  0  0  0  0  0  0  0  0  0  0
   33.8764   32.4903   -5.7037 C   0  0  0  0  0  0  0  0  0  0  0  0
   34.2677   33.6333   -6.4190 C   0  0  0  0  0  0  0  0  0  0  0  0
   33.9283   33.7702   -7.7686 C   0  0  0  0  0  0  0  0  0  0  0  0
   33.2110   32.7608   -8.4163 C   0  0  0  0  0  0  0  0  0  0  0  0
   32.8400   31.6090   -7.7175 C   0  0  0  0  0  0  0  0  0  0  0  0
   33.1771   31.4688   -6.3677 C   0  0  0  0  0  0  0  0  0  0  0  0
   36.6991   31.4950   -4.5074 C   0  0  0  0  0  0  0  0  0  0  0  0
   36.8948   30.0282   -4.3626 N   0  0  0  0  0  0  0  0  0  0  0  0
   35.6809   29.2481   -4.7181 C   0  0  0  0  0  0  0  0  0  0  0  0
   35.6310   28.8679   -6.2132 C   0  0  0  0  0  0  0  0  0  0  0  0
   36.4047   29.7571   -6.9877 O   0  0  0  0  0  0  0  0  0  0  0  0
   37.7781   29.6067   -6.6742 C   0  0  0  0  0  0  0  0  0  0  0  0
   38.0551   29.5616   -5.1514 C   0  0  0  0  0  0  0  0  0  0  0  0
   37.0808   29.8623   -3.3735 H   0  0  0  0  0  0  0  0  0  0  0  0
  1  2  1  0  0  0
  2  3  1  0  0  0
  3  4  2  0  0  0
  4  5  1  0  0  0
  5  6  2  0  0  0
  6  7  1  0  0  0
  7  8  2  0  0  0
  8 17  1  0  0  0
 17 18  1  0  0  0
 18 19  1  0  0  0
 19 20  1  0  0  0
 20 21  1  0  0  0
 21 22  1  0  0  0
 22 23  1  0  0  0
  8  9  1  0  0  0
  9 10  1  0  0  0
  7 11  1  0  0  0
 11 12  2  0  0  0
 12 13  1  0  0  0
 13 14  2  0  0  0
 14 15  1  0  0  0
 15 16  2  0  0  0
 10  2  2  0  0  0
  9  5  1  0  0  0
 23 18  1  0  0  0
 16 11  1  0  0  0
 18 24  1  0  0  0
M  CHG 1  18   1
M  END
> <minimizedAffinity>
-7.21739

> <newdefault_CNNaffinity>
5.61793

> <newdefault_CNNscore>
0.169833

> <CNNaffinity_times_score>
0.9541099

> <protein>
2v3d

$$$$
17408573


 40 42  0  0  0  0  0  0  0  0999 V2000
    4.0319   -4.1041   42.3935 C   0  0  0  0  0  0  0  0  0  0  0  0
    6.5503   -3.5573   45.2488 C   0  0  0  0  0  0  0  0  0  0  0  0
    5.8978   -4.1052   44.1278 C   0  0  0  0  0  0  0  0  0  0  0  0
    4.7517   -3.5013   43.5879 C   0  0  0  0  0  0  0  0  0  0  0  0
    4.3076   -2.2868   44.1226 C   0  0  0  0  0  0  0  0  0  0  0  0
    4.9622   -1.7038   45.2220 C   0  0  0  0  0  0  0  0  0  0  0  0
    6.0620   -2.3508   45.8108 C   0  0  0  0  0  0  0  0  0  0  0  0
    7.7211   -5.5414   46.2377 C   0  0  0  0  0  0  0  0  0  0  0  0
    7.6765   -4.1861   45.8032 O   0  0  0  0  0  0  0  0  0  0  0  0
    4.5496   -0.4731   45.7619 O   0  0  0  0  0  0  0  0  0  0  0  0
    3.3206   -0.2621   46.4476 C   0  0  0  0  0  0  0  0  0  0  0  0
    6.6263   -1.7357   46.9446 O   0  0  0  0  0  0  0  0  0  0  0  0
    6.2473   -1.9492   48.3004 C   0  0  0  0  0  0  0  0  0  0  0  0
    3.3732   -5.4008   42.8132 C   0  0  0  0  0  0  0  0  0  0  0  0
    3.0060   -5.5486   44.0098 O   0  0  0  0  0  0  0  0  0  0  0  0
    3.1240   -6.4295   41.8371 N   0  0  0  0  0  0  0  0  0  0  0  0
    3.5282   -6.3195   40.9461 H   0  0  0  0  0  0  0  0  0  0  0  0
    2.3079   -7.6363   42.0722 C   0  0  0  0  0  0  0  0  0  0  0  0
    2.9183   -8.4817   43.2066 C   0  0  0  0  0  0  0  0  0  0  0  0
    0.8596   -7.2387   42.4167 C   0  0  0  0  0  0  0  0  0  0  0  0
    2.2874   -8.4891   40.7874 C   0  0  0  0  0  0  0  0  0  0  0  0
    3.0692   -3.1483   41.7970 N   0  0  0  0  0  0  0  0  0  0  0  0
    3.4263   -2.4222   40.5996 C   0  0  0  0  0  0  0  0  0  0  0  0
    4.3289   -2.8663   39.8394 O   0  0  0  0  0  0  0  0  0  0  0  0
    1.7079   -3.0883   42.2568 C   0  0  0  0  0  0  0  0  0  0  0  0
    0.7063   -3.8003   41.5830 C   0  0  0  0  0  0  0  0  0  0  0  0
   -0.6175   -3.7384   42.0286 C   0  0  0  0  0  0  0  0  0  0  0  0
   -0.9434   -2.9742   43.1524 C   0  0  0  0  0  0  0  0  0  0  0  0
    0.0547   -2.2705   43.8320 C   0  0  0  0  0  0  0  0  0  0  0  0
    1.3780   -2.3246   43.3853 C   0  0  0  0  0  0  0  0  0  0  0  0
    2.7496   -1.1299   40.2406 C   0  0  0  0  0  0  0  0  0  0  0  0
    1.4965   -1.3953   39.5347 N   0  0  0  0  0  0  0  0  0  0  0  0
    0.5105   -0.3795   39.2879 C   0  0  0  0  0  0  0  0  0  0  0  0
    0.7697    0.8280   39.5497 O   0  0  0  0  0  0  0  0  0  0  0  0
    1.3209   -2.3097   39.2147 H   0  0  0  0  0  0  0  0  0  0  0  0
   -0.8219   -0.7201   38.7562 C   0  0  0  0  0  0  0  0  0  0  0  0
   -1.6306   -1.7940   39.1238 C   0  0  0  0  0  0  0  0  0  0  0  0
   -2.8604   -1.8143   38.4560 C   0  0  0  0  0  0  0  0  0  0  0  0
   -3.0324   -0.7614   37.5689 C   0  0  0  0  0  0  0  0  0  0  0  0
   -1.6514    0.1959   37.6171 S   0  0  0  0  0  0  0  0  0  0  0  0
  8  9  1  0  0  0
  9  2  1  0  0  0
  2  3  2  0  0  0
  3  4  1  0  0  0
  4  5  2  0  0  0
  5  6  1  0  0  0
  6 10  1  0  0  0
 10 11  1  0  0  0
  6  7  2  0  0  0
  7 12  1  0  0  0
 12 13  1  0  0  0
  4  1  1  0  0  0
  1 22  1  0  0  0
 22 23  1  0  0  0
 23 24  2  0  0  0
 23 31  1  0  0  0
 31 32  1  0  0  0
 32 33  1  0  0  0
 33 34  2  0  0  0
 33 36  1  0  0  0
 36 37  2  0  0  0
 37 38  1  0  0  0
 38 39  2  0  0  0
 39 40  1  0  0  0
 22 25  1  0  0  0
 25 26  2  0  0  0
 26 27  1  0  0  0
 27 28  2  0  0  0
 28 29  1  0  0  0
 29 30  2  0  0  0
  1 14  1  0  0  0
 14 15  2  0  0  0
 14 16  1  0  0  0
 16 18  1  0  0  0
 18 19  1  0  0  0
 18 20  1  0  0  0
 18 21  1  0  0  0
  7  2  1  0  0  0
 40 36  1  0  0  0
 30 25  1  0  0  0
 32 35  1  0  0  0
 16 17  1  0  0  0
M  END
> <minimizedAffinity>
-5.05485

> <newdefault_CNNaffinity>
6.15223

> <newdefault_CNNscore>
0.513577

> <CNNaffinity_times_score>
3.1596437

> <protein>
3rik

$$$$
17414369


 39 43  0  0  0  0  0  0  0  0999 V2000
    3.5417   -8.8685   43.7374 C   0  0  0  0  0  0  0  0  0  0  0  0
    3.1981   -9.3335   42.4589 C   0  0  0  0  0  0  0  0  0  0  0  0
    2.4715  -10.5225   42.2979 C   0  0  0  0  0  0  0  0  0  0  0  0
    2.0913  -11.2506   43.4336 C   0  0  0  0  0  0  0  0  0  0  0  0
    2.4240  -10.7975   44.7107 C   0  0  0  0  0  0  0  0  0  0  0  0
    3.1283   -9.5944   44.8844 C   0  0  0  0  0  0  0  0  0  0  0  0
    4.3316   -5.3152   43.4804 C   0  0  0  0  0  0  0  0  0  0  0  0
    3.7215   -6.5251   43.4054 N   0  0  0  0  0  0  0  0  0  0  0  0
    4.2895   -7.6474   43.8498 N   0  0  0  0  0  0  0  0  0  0  0  0
    5.5467   -7.6310   44.3948 C   0  0  0  0  0  0  0  0  0  0  0  0
    6.0857   -8.7056   44.7839 O   0  0  0  0  0  0  0  0  0  0  0  0
    6.2284   -6.4093   44.5266 C   0  0  0  0  0  0  0  0  0  0  0  0
    7.4982   -6.3392   45.1330 C   0  0  0  0  0  0  0  0  0  0  0  0
    8.1400   -5.1067   45.2875 C   0  0  0  0  0  0  0  0  0  0  0  0
    7.5298   -3.9363   44.8344 C   0  0  0  0  0  0  0  0  0  0  0  0
    6.2728   -3.9888   44.2268 C   0  0  0  0  0  0  0  0  0  0  0  0
    5.6101   -5.2233   44.0644 C   0  0  0  0  0  0  0  0  0  0  0  0
    3.4017   -2.1254   39.7468 C   0  0  0  0  0  0  0  0  0  0  0  0
    3.1448   -2.5990   41.1487 C   0  0  0  0  0  0  0  0  0  0  0  0
    2.2017   -1.9341   41.9425 C   0  0  0  0  0  0  0  0  0  0  0  0
    1.9699   -2.3464   43.2563 C   0  0  0  0  0  0  0  0  0  0  0  0
    2.6764   -3.4340   43.7989 C   0  0  0  0  0  0  0  0  0  0  0  0
    2.3951   -3.8683   45.2152 C   0  0  0  0  0  0  0  0  0  0  0  0
    3.5978   -4.1334   42.9857 C   0  0  0  0  0  0  0  0  0  0  0  0
    3.8385   -3.6982   41.6747 C   0  0  0  0  0  0  0  0  0  0  0  0
    2.0401  -10.9399   40.9862 N   0  0  0  0  0  0  0  0  0  0  0  0
    1.6113  -12.3260   40.7394 C   0  0  0  0  0  0  0  0  0  0  0  0
    0.4947  -12.3735   39.6746 C   0  0  0  0  0  0  0  0  0  0  0  0
   -0.1669  -11.0564   39.5549 N   0  0  0  0  0  0  0  0  0  0  0  0
    0.7797  -10.0377   39.0403 C   0  0  0  0  0  0  0  0  0  0  0  0
    2.0980  -10.0091   39.8507 C   0  0  0  0  0  0  0  0  0  0  0  0
   -0.4442  -10.7736   40.4949 H   0  0  0  0  0  0  0  0  0  0  0  0
   -1.4356  -11.1046   38.7848 C   0  0  0  0  0  0  0  0  0  0  0  0
   -1.8845   -9.7648   38.1674 C   0  0  0  0  0  0  0  0  0  0  0  0
   -1.8608   -9.8635   36.7678 O   0  0  0  0  0  0  0  0  0  0  0  0
   -0.9598  -10.0694   36.4734 H   0  0  0  0  0  0  0  0  0  0  0  0
    3.3797   -9.1136   46.2200 N   0  0  0  0  0  0  0  0  0  0  0  0
    2.7782   -8.1166   46.6685 O   0  0  0  0  0  0  0  0  0  0  0  0
    4.2078   -9.8207   47.0622 O   0  0  0  0  0  0  0  0  0  0  0  0
 18 19  1  0  0  0
 19 20  2  0  0  0
 20 21  1  0  0  0
 21 22  2  0  0  0
 22 23  1  0  0  0
 22 24  1  0  0  0
 24 25  2  0  0  0
 24  7  1  0  0  0
  7  8  2  0  0  0
  8  9  1  0  0  0
  9 10  1  0  0  0
 10 11  2  0  0  0
 10 12  1  0  0  0
 12 13  2  0  0  0
 13 14  1  0  0  0
 14 15  2  0  0  0
 15 16  1  0  0  0
 16 17  2  0  0  0
  9  1  1  0  0  0
  1  2  2  0  0  0
  2  3  1  0  0  0
  3  4  2  0  0  0
  4  5  1  0  0  0
  5  6  2  0  0  0
  6 37  1  0  0  0
 37 38  2  0  0  0
 37 39  1  0  0  0
  3 26  1  0  0  0
 26 27  1  0  0  0
 27 28  1  0  0  0
 28 29  1  0  0  0
 29 33  1  0  0  0
 33 34  1  0  0  0
 34 35  1  0  0  0
 29 30  1  0  0  0
 30 31  1  0  0  0
 25 19  1  0  0  0
 17  7  1  0  0  0
 17 12  1  0  0  0
  6  1  1  0  0  0
 31 26  1  0  0  0
 29 32  1  0  0  0
 35 36  1  0  0  0
M  CHG 1  29   1
M  CHG 1  37   1
M  CHG 1  39  -1
M  END
> <minimizedAffinity>
-6.74443

> <newdefault_CNNaffinity>
6.04981

> <newdefault_CNNscore>
0.311816

> <CNNaffinity_times_score>
1.8864275

> <protein>
3rik

$$$$
17416036


 26 27  0  0  0  0  0  0  0  0999 V2000
  -10.2495   -6.6128   39.0412 C   0  0  0  0  0  0  0  0  0  0  0  0
   -9.6606   -7.7486   39.6173 C   0  0  0  0  0  0  0  0  0  0  0  0
   -8.2913   -7.9899   39.4701 C   0  0  0  0  0  0  0  0  0  0  0  0
   -7.4871   -7.0938   38.7412 C   0  0  0  0  0  0  0  0  0  0  0  0
   -8.0749   -5.9614   38.1676 C   0  0  0  0  0  0  0  0  0  0  0  0
   -9.4438   -5.7189   38.3140 C   0  0  0  0  0  0  0  0  0  0  0  0
  -12.2872   -6.6356   40.3423 N   0  0  0  0  0  0  0  0  0  0  0  0
  -11.6975   -6.3807   39.2133 C   0  0  0  0  0  0  0  0  0  0  0  0
  -13.6659   -6.4494   40.5553 N   0  0  0  0  0  0  0  0  0  0  0  0
  -13.9811   -5.5500   40.8021 H   0  0  0  0  0  0  0  0  0  0  0  0
  -15.7199   -7.3851   39.4991 N   0  0  0  0  0  0  0  0  0  0  0  0
  -14.6397   -7.5006   40.4322 C   0  0  0  0  0  0  0  0  0  0  0  0
  -14.4988   -8.5900   41.1229 N   0  0  0  0  0  0  0  0  0  0  0  0
  -16.3824   -8.1091   39.4209 H   0  0  0  0  0  0  0  0  0  0  0  0
  -15.8001   -6.5816   38.9359 H   0  0  0  0  0  0  0  0  0  0  0  0
  -15.1622   -9.3129   41.0427 H   0  0  0  0  0  0  0  0  0  0  0  0
  -13.7284   -8.6935   41.7271 H   0  0  0  0  0  0  0  0  0  0  0  0
   -6.1097   -7.2907   38.5648 O   0  0  0  0  0  0  0  0  0  0  0  0
   -5.5300   -8.4422   37.9531 C   0  0  0  0  0  0  0  0  0  0  0  0
   -6.0478   -8.6556   36.5484 C   0  0  0  0  0  0  0  0  0  0  0  0
   -5.7129   -7.7727   35.5007 C   0  0  0  0  0  0  0  0  0  0  0  0
   -6.2012   -7.9866   34.2090 C   0  0  0  0  0  0  0  0  0  0  0  0
   -7.0271   -9.0791   33.9436 C   0  0  0  0  0  0  0  0  0  0  0  0
   -7.3679   -9.9621   34.9692 C   0  0  0  0  0  0  0  0  0  0  0  0
   -6.8850   -9.7586   36.2677 C   0  0  0  0  0  0  0  0  0  0  0  0
   -7.3490  -10.9061   37.5207 Cl  0  0  0  0  0  0  0  0  0  0  0  0
 11 12  1  0  0  0
 12 13  2  0  0  0
 12  9  1  0  0  0
  9  7  1  0  0  0
  7  8  2  0  0  0
  8  1  1  0  0  0
  1  2  2  0  0  0
  2  3  1  0  0  0
  3  4  2  0  0  0
  4 18  1  0  0  0
 18 19  1  0  0  0
 19 20  1  0  0  0
 20 21  2  0  0  0
 21 22  1  0  0  0
 22 23  2  0  0  0
 23 24  1  0  0  0
 24 25  2  0  0  0
 25 26  1  0  0  0
  4  5  1  0  0  0
  5  6  2  0  0  0
  6  1  1  0  0  0
 25 20  1  0  0  0
 11 14  1  0  0  0
 11 15  1  0  0  0
 13 16  1  0  0  0
 13 17  1  0  0  0
  9 10  1  0  0  0
M  CHG 1  13   1
M  END
> <minimizedAffinity>
-6.28607

> <newdefault_CNNaffinity>
5.65748

> <newdefault_CNNscore>
0.454311

> <CNNaffinity_times_score>
2.5702553

> <protein>
3ril

$$$$
17416281


 35 37  0  0  0  0  0  0  0  0999 V2000
    0.9363   -5.1380   42.1948 C   0  0  0  0  0  0  0  0  0  0  0  0
    3.2728   -7.9236   43.3853 C   0  0  0  0  0  0  0  0  0  0  0  0
    2.4297   -7.1391   42.5731 C   0  0  0  0  0  0  0  0  0  0  0  0
    1.7784   -6.0119   43.0959 C   0  0  0  0  0  0  0  0  0  0  0  0
    1.9699   -5.6713   44.4427 C   0  0  0  0  0  0  0  0  0  0  0  0
    2.7743   -6.4653   45.2627 C   0  0  0  0  0  0  0  0  0  0  0  0
    3.4085   -7.6044   44.7553 C   0  0  0  0  0  0  0  0  0  0  0  0
    4.0256   -8.9779   42.8528 O   0  0  0  0  0  0  0  0  0  0  0  0
    3.0567  -10.6138   41.3678 C   0  0  0  0  0  0  0  0  0  0  0  0
    3.5919  -10.3363   42.7726 C   0  0  0  0  0  0  0  0  0  0  0  0
    4.1987   -8.3603   45.6342 O   0  0  0  0  0  0  0  0  0  0  0  0
    4.4590   -7.9946   46.9894 C   0  0  0  0  0  0  0  0  0  0  0  0
    3.8031   -8.9826   47.9122 C   0  0  0  0  0  0  0  0  0  0  0  0
    2.4943   -9.4273   47.6593 C   0  0  0  0  0  0  0  0  0  0  0  0
    1.9004  -10.3848   48.4926 C   0  0  0  0  0  0  0  0  0  0  0  0
    2.6079  -10.9020   49.5860 C   0  0  0  0  0  0  0  0  0  0  0  0
    3.9096  -10.4618   49.8453 C   0  0  0  0  0  0  0  0  0  0  0  0
    4.5034   -9.5012   49.0155 C   0  0  0  0  0  0  0  0  0  0  0  0
    1.3683   -3.7190   42.2523 N   0  0  0  0  0  0  0  0  0  0  0  0
    1.6369   -3.4977   43.2111 H   0  0  0  0  0  0  0  0  0  0  0  0
    0.5857   -3.1446   41.9391 H   0  0  0  0  0  0  0  0  0  0  0  0
    2.5144   -3.4379   41.3626 C   0  0  0  0  0  0  0  0  0  0  0  0
    3.5381   -2.4832   42.0135 C   0  0  0  0  0  0  0  0  0  0  0  0
    4.5609   -3.1128   42.9493 C   0  0  0  0  0  0  0  0  0  0  0  0
    4.9955   -2.3501   44.0491 C   0  0  0  0  0  0  0  0  0  0  0  0
    5.9404   -2.8593   44.9446 C   0  0  0  0  0  0  0  0  0  0  0  0
    6.4821   -4.1374   44.7481 C   0  0  0  0  0  0  0  0  0  0  0  0
    6.0602   -4.9083   43.6579 C   0  0  0  0  0  0  0  0  0  0  0  0
    5.1064   -4.4050   42.7649 C   0  0  0  0  0  0  0  0  0  0  0  0
    7.6322   -4.8061   45.8987 S   0  0  0  0  0  0  0  0  0  0  0  0
    7.3963   -4.1985   47.2546 O   0  0  0  0  0  0  0  0  0  0  0  0
    7.4608   -6.2956   45.9983 O   0  0  0  0  0  0  0  0  0  0  0  0
    9.2383   -4.4477   45.3747 N   0  0  0  0  0  0  0  0  0  0  0  0
    9.3561   -3.4368   45.3066 H   0  0  0  0  0  0  0  0  0  0  0  0
    9.4004   -4.8712   44.4611 H   0  0  0  0  0  0  0  0  0  0  0  0
  9 10  1  0  0  0
 10  8  1  0  0  0
  8  2  1  0  0  0
  2  3  2  0  0  0
  3  4  1  0  0  0
  4  1  1  0  0  0
  1 19  1  0  0  0
 19 22  1  0  0  0
 22 23  1  0  0  0
 23 24  1  0  0  0
 24 25  2  0  0  0
 25 26  1  0  0  0
 26 27  2  0  0  0
 27 28  1  0  0  0
 28 29  2  0  0  0
 27 30  1  0  0  0
 30 31  2  0  0  0
 30 32  2  0  0  0
 30 33  1  0  0  0
  4  5  2  0  0  0
  5  6  1  0  0  0
  6  7  2  0  0  0
  7 11  1  0  0  0
 11 12  1  0  0  0
 12 13  1  0  0  0
 13 14  2  0  0  0
 14 15  1  0  0  0
 15 16  2  0  0  0
 16 17  1  0  0  0
 17 18  2  0  0  0
  7  2  1  0  0  0
 29 24  1  0  0  0
 18 13  1  0  0  0
 19 20  1  0  0  0
 19 21  1  0  0  0
 33 34  1  0  0  0
 33 35  1  0  0  0
M  CHG 1  19   1
M  END
> <minimizedAffinity>
-4.75438

> <newdefault_CNNaffinity>
5.4198

> <newdefault_CNNscore>
0.341405

> <CNNaffinity_times_score>
1.8503468

> <protein>
3rik

$$$$
17503875


 26 28  0  0  0  0  0  0  0  0999 V2000
  -21.4547  -19.5867    7.2943 C   0  0  0  0  0  0  0  0  0  0  0  0
  -22.9193  -19.2687    7.3824 C   0  0  0  0  0  0  0  0  0  0  0  0
  -23.3906  -18.7498    8.5462 N   0  0  0  0  0  0  0  0  0  0  0  0
  -24.6979  -18.4243    8.7100 C   0  0  0  0  0  0  0  0  0  0  0  0
  -25.5600  -18.6073    7.6790 N   0  0  0  0  0  0  0  0  0  0  0  0
  -25.1638  -19.1262    6.4870 C   0  0  0  0  0  0  0  0  0  0  0  0
  -23.8089  -19.4913    6.3036 C   0  0  0  0  0  0  0  0  0  0  0  0
  -25.1797  -17.8687    9.9983 C   0  0  0  0  0  0  0  0  0  0  0  0
  -26.3953  -17.1592   10.0626 C   0  0  0  0  0  0  0  0  0  0  0  0
  -26.8489  -16.6386   11.2784 C   0  0  0  0  0  0  0  0  0  0  0  0
  -26.0985  -16.8189   12.4420 C   0  0  0  0  0  0  0  0  0  0  0  0
  -24.8924  -17.5206   12.3927 C   0  0  0  0  0  0  0  0  0  0  0  0
  -24.4332  -18.0438   11.1800 C   0  0  0  0  0  0  0  0  0  0  0  0
  -26.1255  -19.2456    5.4227 N   0  0  0  0  0  0  0  0  0  0  0  0
  -26.4793  -20.1395    5.2109 H   0  0  0  0  0  0  0  0  0  0  0  0
  -26.5958  -18.1253    4.6526 C   0  0  0  0  0  0  0  0  0  0  0  0
  -25.7744  -17.5798    3.6537 C   0  0  0  0  0  0  0  0  0  0  0  0
  -26.2171  -16.4999    2.8839 C   0  0  0  0  0  0  0  0  0  0  0  0
  -27.4904  -15.9614    3.0936 C   0  0  0  0  0  0  0  0  0  0  0  0
  -27.9182  -14.8846    2.3203 O   0  0  0  0  0  0  0  0  0  0  0  0
  -28.3247  -16.5128    4.0746 C   0  0  0  0  0  0  0  0  0  0  0  0
  -27.8845  -17.5931    4.8452 C   0  0  0  0  0  0  0  0  0  0  0  0
  -27.3524  -14.5231    1.6667 H   0  0  0  0  0  0  0  0  0  0  0  0
  -23.3249  -20.0735    4.9908 C   0  0  0  0  0  0  0  0  0  0  0  0
  -23.5531  -21.5604    4.9655 C   0  0  0  0  0  0  0  0  0  0  0  0
  -24.2569  -22.1520    3.9960 C   0  0  0  0  0  0  0  0  0  0  0  0
  1  2  1  0  0  0
  2  3  2  0  0  0
  3  4  1  0  0  0
  4  5  2  0  0  0
  5  6  1  0  0  0
  6 14  1  0  0  0
 14 16  1  0  0  0
 16 17  2  0  0  0
 17 18  1  0  0  0
 18 19  2  0  0  0
 19 20  1  0  0  0
 19 21  1  0  0  0
 21 22  2  0  0  0
  6  7  2  0  0  0
  7 24  1  0  0  0
 24 25  1  0  0  0
 25 26  2  0  0  0
  4  8  1  0  0  0
  8  9  2  0  0  0
  9 10  1  0  0  0
 10 11  2  0  0  0
 11 12  1  0  0  0
 12 13  2  0  0  0
  7  2  1  0  0  0
 22 16  1  0  0  0
 13  8  1  0  0  0
 14 15  1  0  0  0
 20 23  1  0  0  0
M  END
> <minimizedAffinity>
-7.94378

> <newdefault_CNNaffinity>
5.67428

> <newdefault_CNNscore>
0.540743

> <CNNaffinity_times_score>
3.0683272

> <protein>
2xwe

$$$$
17504900


 31 33  0  0  0  0  0  0  0  0999 V2000
  -21.7331  -17.8543    7.7502 C   0  0  0  0  0  0  0  0  0  0  0  0
  -23.1021  -18.5227    7.4673 C   0  0  0  0  0  0  0  0  0  0  0  0
  -23.8406  -18.6638    8.8224 C   0  0  0  0  0  0  0  0  0  0  0  0
  -23.8902  -17.6016    6.4577 C   0  0  0  0  0  0  0  0  0  0  0  0
  -24.8507  -18.4272    5.5598 C   0  0  0  0  0  0  0  0  0  0  0  0
  -24.1111  -19.3886    4.7079 N   0  0  0  0  0  0  0  0  0  0  0  0
  -22.8721  -19.9337    5.3063 C   0  0  0  0  0  0  0  0  0  0  0  0
  -22.9375  -19.9674    6.8571 C   0  0  0  0  0  0  0  0  0  0  0  0
  -23.8608  -18.9143    3.8402 H   0  0  0  0  0  0  0  0  0  0  0  0
  -22.6315  -21.3165    4.7344 C   0  0  0  0  0  0  0  0  0  0  0  0
  -23.2217  -22.4451    5.3301 C   0  0  0  0  0  0  0  0  0  0  0  0
  -23.0012  -23.7205    4.8017 C   0  0  0  0  0  0  0  0  0  0  0  0
  -22.1868  -23.8861    3.6775 C   0  0  0  0  0  0  0  0  0  0  0  0
  -21.9767  -25.1631    3.1622 O   0  0  0  0  0  0  0  0  0  0  0  0
  -21.5895  -22.7679    3.0815 C   0  0  0  0  0  0  0  0  0  0  0  0
  -21.8082  -21.4912    3.6069 C   0  0  0  0  0  0  0  0  0  0  0  0
  -22.3808  -25.9045    3.5683 H   0  0  0  0  0  0  0  0  0  0  0  0
  -25.7446  -17.5388    4.7046 C   0  0  0  0  0  0  0  0  0  0  0  0
  -27.1477  -17.6330    4.7809 C   0  0  0  0  0  0  0  0  0  0  0  0
  -27.9572  -16.8188    3.9837 C   0  0  0  0  0  0  0  0  0  0  0  0
  -27.3809  -15.9011    3.1012 C   0  0  0  0  0  0  0  0  0  0  0  0
  -28.2004  -15.0966    2.3127 O   0  0  0  0  0  0  0  0  0  0  0  0
  -25.9866  -15.7992    3.0181 C   0  0  0  0  0  0  0  0  0  0  0  0
  -25.1736  -16.6118    3.8138 C   0  0  0  0  0  0  0  0  0  0  0  0
  -29.1321  -15.1726    2.3759 H   0  0  0  0  0  0  0  0  0  0  0  0
  -21.7869  -20.6861    7.4242 N   0  0  0  0  0  0  0  0  0  0  0  0
  -21.9598  -21.4957    8.3583 O   0  0  0  0  0  0  0  0  0  0  0  0
  -20.5409  -20.5898    6.8465 O   0  0  0  0  0  0  0  0  0  0  0  0
  -24.5900  -16.4973    7.1305 N   0  0  0  0  0  0  0  0  0  0  0  0
  -25.6137  -16.7069    7.8151 O   0  0  0  0  0  0  0  0  0  0  0  0
  -24.2024  -15.2002    6.8878 O   0  0  0  0  0  0  0  0  0  0  0  0
  1  2  1  0  0  0
  2  3  1  0  0  0
  2  4  1  0  0  0
  4  5  1  0  0  0
  5  6  1  0  0  0
  6  7  1  0  0  0
  7  8  1  0  0  0
  8 26  1  0  0  0
 26 27  2  0  0  0
 26 28  1  0  0  0
  7 10  1  0  0  0
 10 11  2  0  0  0
 11 12  1  0  0  0
 12 13  2  0  0  0
 13 14  1  0  0  0
 13 15  1  0  0  0
 15 16  2  0  0  0
  5 18  1  0  0  0
 18 19  2  0  0  0
 19 20  1  0  0  0
 20 21  2  0  0  0
 21 22  1  0  0  0
 21 23  1  0  0  0
 23 24  2  0  0  0
  4 29  1  0  0  0
 29 30  2  0  0  0
 29 31  1  0  0  0
  8  2  1  0  0  0
 16 10  1  0  0  0
 24 18  1  0  0  0
  6  9  1  0  0  0
 14 17  1  0  0  0
 22 25  1  0  0  0
M  CHG 1  26   1
M  CHG 1  28  -1
M  CHG 1  29   1
M  CHG 1  31  -1
M  END
> <minimizedAffinity>
-7.64222

> <newdefault_CNNaffinity>
5.86201

> <newdefault_CNNscore>
0.639859

> <CNNaffinity_times_score>
3.75086

> <protein>
2xwe

$$$$
17505566


 30 33  0  0  0  0  0  0  0  0999 V2000
  -38.3415  -20.5379   12.2075 C   0  0  0  0  0  0  0  0  0  0  0  0
  -38.2604  -21.2038   10.8663 C   0  0  0  0  0  0  0  0  0  0  0  0
  -38.8078  -20.6804    9.7103 C   0  0  0  0  0  0  0  0  0  0  0  0
  -38.4689  -21.5497    8.6931 C   0  0  0  0  0  0  0  0  0  0  0  0
  -37.7637  -22.5971    9.2723 C   0  0  0  0  0  0  0  0  0  0  0  0
  -37.3050  -23.8479    8.5762 C   0  0  0  0  0  0  0  0  0  0  0  0
  -37.6237  -22.3690   10.5986 N   0  0  0  0  0  0  0  0  0  0  0  0
  -38.9019  -21.4171    7.2936 C   0  0  0  0  0  0  0  0  0  0  0  0
  -38.2152  -20.7287    6.3735 C   0  0  0  0  0  0  0  0  0  0  0  0
  -38.5504  -20.5889    4.9580 C   0  0  0  0  0  0  0  0  0  0  0  0
  -39.5389  -21.1114    4.3786 O   0  0  0  0  0  0  0  0  0  0  0  0
  -37.5942  -19.7645    4.3027 N   0  0  0  0  0  0  0  0  0  0  0  0
  -36.6583  -19.3342    5.2538 N   0  0  0  0  0  0  0  0  0  0  0  0
  -37.0106  -19.9026    6.5183 C   0  0  0  0  0  0  0  0  0  0  0  0
  -36.3768  -19.7002    7.5878 O   0  0  0  0  0  0  0  0  0  0  0  0
  -37.5903  -19.5353    3.3453 H   0  0  0  0  0  0  0  0  0  0  0  0
  -35.5332  -18.4893    4.9555 C   0  0  0  0  0  0  0  0  0  0  0  0
  -34.5927  -18.1619    5.9488 C   0  0  0  0  0  0  0  0  0  0  0  0
  -33.5034  -17.3389    5.6465 C   0  0  0  0  0  0  0  0  0  0  0  0
  -33.3446  -16.8329    4.3541 C   0  0  0  0  0  0  0  0  0  0  0  0
  -34.2780  -17.1447    3.3630 C   0  0  0  0  0  0  0  0  0  0  0  0
  -35.3691  -17.9667    3.6610 C   0  0  0  0  0  0  0  0  0  0  0  0
  -36.9747  -23.2359   11.5429 C   0  0  0  0  0  0  0  0  0  0  0  0
  -35.6374  -23.0137   11.9052 C   0  0  0  0  0  0  0  0  0  0  0  0
  -35.0112  -23.8511   12.8333 C   0  0  0  0  0  0  0  0  0  0  0  0
  -35.7180  -24.9161   13.4089 C   0  0  0  0  0  0  0  0  0  0  0  0
  -35.1051  -25.7579   14.3340 O   0  0  0  0  0  0  0  0  0  0  0  0
  -37.0527  -25.1369   13.0522 C   0  0  0  0  0  0  0  0  0  0  0  0
  -37.6800  -24.3001   12.1243 C   0  0  0  0  0  0  0  0  0  0  0  0
  -34.2115  -25.6153   14.5771 H   0  0  0  0  0  0  0  0  0  0  0  0
  1  2  1  0  0  0
  2  3  2  0  0  0
  3  4  1  0  0  0
  4  8  1  0  0  0
  8  9  2  0  0  0
  9 10  1  0  0  0
 10 11  2  0  0  0
 10 12  1  0  0  0
 12 13  1  0  0  0
 13 14  1  0  0  0
 14 15  2  0  0  0
 13 17  1  0  0  0
 17 18  2  0  0  0
 18 19  1  0  0  0
 19 20  2  0  0  0
 20 21  1  0  0  0
 21 22  2  0  0  0
  4  5  2  0  0  0
  5  6  1  0  0  0
  5  7  1  0  0  0
  7 23  1  0  0  0
 23 24  2  0  0  0
 24 25  1  0  0  0
 25 26  2  0  0  0
 26 27  1  0  0  0
 26 28  1  0  0  0
 28 29  2  0  0  0
  7  2  1  0  0  0
  9 14  1  0  0  0
 22 17  1  0  0  0
 29 23  1  0  0  0
 12 16  1  0  0  0
 27 30  1  0  0  0
M  END
> <minimizedAffinity>
-7.14420

> <newdefault_CNNaffinity>
5.91436

> <newdefault_CNNscore>
0.591859

> <CNNaffinity_times_score>
3.500467

> <protein>
2xwe

$$$$
17508780


 30 32  0  0  0  0  0  0  0  0999 V2000
    5.5060   -4.6682   44.1783 C   0  0  0  0  0  0  0  0  0  0  0  0
    4.9056   -3.8274   43.2953 N   0  0  0  0  0  0  0  0  0  0  0  0
    3.9486   -4.2424   42.4306 C   0  0  0  0  0  0  0  0  0  0  0  0
    3.5693   -5.5436   42.4395 N   0  0  0  0  0  0  0  0  0  0  0  0
    4.1185   -6.4464   43.2929 C   0  0  0  0  0  0  0  0  0  0  0  0
    3.6270   -7.8643   43.2220 C   0  0  0  0  0  0  0  0  0  0  0  0
    5.1308   -6.0365   44.1993 C   0  0  0  0  0  0  0  0  0  0  0  0
    3.3158   -3.2781   41.4983 C   0  0  0  0  0  0  0  0  0  0  0  0
    4.0074   -2.8212   40.3595 C   0  0  0  0  0  0  0  0  0  0  0  0
    3.4057   -1.9126   39.4824 C   0  0  0  0  0  0  0  0  0  0  0  0
    2.1101   -1.4518   39.7284 C   0  0  0  0  0  0  0  0  0  0  0  0
    1.4132   -1.8983   40.8525 C   0  0  0  0  0  0  0  0  0  0  0  0
    2.0093   -2.8061   41.7341 C   0  0  0  0  0  0  0  0  0  0  0  0
    6.4987   -4.1242   45.0685 N   0  0  0  0  0  0  0  0  0  0  0  0
    7.4516   -4.3068   44.9011 H   0  0  0  0  0  0  0  0  0  0  0  0
    6.7508   -1.2207   45.0800 C   0  0  0  0  0  0  0  0  0  0  0  0
    6.2860   -2.0424   46.2616 C   0  0  0  0  0  0  0  0  0  0  0  0
    6.1286   -3.3360   46.1737 N   0  0  0  0  0  0  0  0  0  0  0  0
    5.9355   -1.3664   47.5453 C   0  0  0  0  0  0  0  0  0  0  0  0
    6.0629   -2.0314   48.7825 C   0  0  0  0  0  0  0  0  0  0  0  0
    5.7423   -1.3818   49.9782 C   0  0  0  0  0  0  0  0  0  0  0  0
    5.2811   -0.0617   49.9641 C   0  0  0  0  0  0  0  0  0  0  0  0
    4.9726    0.6073   51.1906 N   0  0  0  0  0  0  0  0  0  0  0  0
    5.1369    0.6050   48.7416 C   0  0  0  0  0  0  0  0  0  0  0  0
    5.4602   -0.0384   47.5443 C   0  0  0  0  0  0  0  0  0  0  0  0
    5.0754    0.1350   52.0482 H   0  0  0  0  0  0  0  0  0  0  0  0
    4.6576    1.5399   51.1768 H   0  0  0  0  0  0  0  0  0  0  0  0
    5.7142   -7.0200   45.2013 C   0  0  0  0  0  0  0  0  0  0  0  0
    4.8503   -7.1215   46.4281 C   0  0  0  0  0  0  0  0  0  0  0  0
    4.3896   -8.2931   46.8792 C   0  0  0  0  0  0  0  0  0  0  0  0
 16 17  1  0  0  0
 17 18  2  0  0  0
 18 14  1  0  0  0
 14  1  1  0  0  0
  1  2  2  0  0  0
  2  3  1  0  0  0
  3  4  2  0  0  0
  4  5  1  0  0  0
  5  6  1  0  0  0
  5  7  2  0  0  0
  7 28  1  0  0  0
 28 29  1  0  0  0
 29 30  2  0  0  0
  3  8  1  0  0  0
  8  9  2  0  0  0
  9 10  1  0  0  0
 10 11  2  0  0  0
 11 12  1  0  0  0
 12 13  2  0  0  0
 17 19  1  0  0  0
 19 20  2  0  0  0
 20 21  1  0  0  0
 21 22  2  0  0  0
 22 23  1  0  0  0
 22 24  1  0  0  0
 24 25  2  0  0  0
  7  1  1  0  0  0
 13  8  1  0  0  0
 25 19  1  0  0  0
 14 15  1  0  0  0
 23 26  1  0  0  0
 23 27  1  0  0  0
M  END
> <minimizedAffinity>
-6.69139

> <newdefault_CNNaffinity>
5.72959

> <newdefault_CNNscore>
0.367073

> <CNNaffinity_times_score>
2.1031778

> <protein>
3rik

$$$$
17511075


 34 36  0  0  0  0  0  0  0  0999 V2000
  -32.0863  -16.6464    6.2495 C   0  0  0  0  0  0  0  0  0  0  0  0
  -32.1643  -16.1228    7.8008 S   0  0  0  0  0  0  0  0  0  0  0  0
  -30.8191  -17.0611    5.7163 N   0  0  0  0  0  0  0  0  0  0  0  0
  -30.7553  -17.9513    5.3008 H   0  0  0  0  0  0  0  0  0  0  0  0
  -29.6191  -16.2272    5.7596 C   0  0  0  0  0  0  0  0  0  0  0  0
  -28.5730  -16.6833    3.6590 O   0  0  0  0  0  0  0  0  0  0  0  0
  -28.5338  -16.8214    4.9120 C   0  0  0  0  0  0  0  0  0  0  0  0
  -27.4933  -17.5986    5.5233 N   0  0  0  0  0  0  0  0  0  0  0  0
  -27.4564  -17.6471    6.5059 H   0  0  0  0  0  0  0  0  0  0  0  0
  -26.4826  -18.3238    4.7458 C   0  0  0  0  0  0  0  0  0  0  0  0
  -26.1712  -19.6509    5.4744 C   0  0  0  0  0  0  0  0  0  0  0  0
  -25.3411  -20.7061    4.7014 C   0  0  0  0  0  0  0  0  0  0  0  0
  -24.3142  -20.1907    3.6774 C   0  0  0  0  0  0  0  0  0  0  0  0
  -23.0728  -19.4561    4.2405 C   0  0  0  0  0  0  0  0  0  0  0  0
  -23.2489  -18.6858    5.5625 C   0  0  0  0  0  0  0  0  0  0  0  0
  -24.1277  -17.4115    5.5165 C   0  0  0  0  0  0  0  0  0  0  0  0
  -25.2716  -17.3811    4.4848 C   0  0  0  0  0  0  0  0  0  0  0  0
  -33.2516  -16.5449    5.4110 N   0  0  0  0  0  0  0  0  0  0  0  0
  -33.1473  -16.7967    3.9668 C   0  0  0  0  0  0  0  0  0  0  0  0
  -33.4773  -15.5303    3.1619 C   0  0  0  0  0  0  0  0  0  0  0  0
  -34.6088  -15.7409    2.1238 C   0  0  0  0  0  0  0  0  0  0  0  0
  -34.1584  -16.1983    0.7833 N   0  0  0  0  0  0  0  0  0  0  0  0
  -35.2137  -16.9057    0.0131 C   0  0  0  0  0  0  0  0  0  0  0  0
  -36.0416  -15.9824   -0.9205 C   0  0  0  0  0  0  0  0  0  0  0  0
  -35.4176  -14.7574   -1.2648 O   0  0  0  0  0  0  0  0  0  0  0  0
  -34.0251  -14.9212   -1.3765 C   0  0  0  0  0  0  0  0  0  0  0  0
  -33.4294  -15.1500    0.0150 C   0  0  0  0  0  0  0  0  0  0  0  0
  -33.4554  -16.9159    0.9604 H   0  0  0  0  0  0  0  0  0  0  0  0
  -34.5673  -16.3031    6.0179 C   0  0  0  0  0  0  0  0  0  0  0  0
  -35.4711  -17.4713    5.7786 C   0  0  0  0  0  0  0  0  0  0  0  0
  -35.3357  -18.7324    6.3440 C   0  0  0  0  0  0  0  0  0  0  0  0
  -36.3565  -19.6141    5.9699 C   0  0  0  0  0  0  0  0  0  0  0  0
  -37.2957  -19.0501    5.1152 C   0  0  0  0  0  0  0  0  0  0  0  0
  -36.8556  -17.4527    4.8255 S   0  0  0  0  0  0  0  0  0  0  0  0
  6  7  2  0  0  0
  7  5  1  0  0  0
  5  3  1  0  0  0
  3  1  1  0  0  0
  1  2  2  0  0  0
  1 18  1  0  0  0
 18 19  1  0  0  0
 19 20  1  0  0  0
 20 21  1  0  0  0
 21 22  1  0  0  0
 22 23  1  0  0  0
 23 24  1  0  0  0
 24 25  1  0  0  0
 25 26  1  0  0  0
 26 27  1  0  0  0
 18 29  1  0  0  0
 29 30  1  0  0  0
 30 31  2  0  0  0
 31 32  1  0  0  0
 32 33  2  0  0  0
 33 34  1  0  0  0
  7  8  1  0  0  0
  8 10  1  0  0  0
 10 11  1  0  0  0
 11 12  1  0  0  0
 12 13  1  0  0  0
 13 14  1  0  0  0
 14 15  1  0  0  0
 15 16  1  0  0  0
 16 17  1  0  0  0
 27 22  1  0  0  0
 34 30  1  0  0  0
 17 10  1  0  0  0
  3  4  1  0  0  0
 22 28  1  0  0  0
  8  9  1  0  0  0
M  CHG 1  22   1
M  END
> <minimizedAffinity>
-7.28130

> <newdefault_CNNaffinity>
6.62775

> <newdefault_CNNscore>
0.526201

> <CNNaffinity_times_score>
3.4875288

> <protein>
2xwd

$$$$
17514859


 34 37  0  0  0  0  0  0  0  0999 V2000
  -34.4062  -16.4921    3.5255 C   0  0  0  0  0  0  0  0  0  0  0  0
  -34.6810  -16.1376    2.0948 N   0  0  0  0  0  0  0  0  0  0  0  0
  -33.6275  -15.2781    1.4998 C   0  0  0  0  0  0  0  0  0  0  0  0
  -34.0097  -14.8347    0.0842 C   0  0  0  0  0  0  0  0  0  0  0  0
  -34.2691  -16.0155   -0.7560 N   0  0  0  0  0  0  0  0  0  0  0  0
  -34.5697  -15.5959   -2.1331 C   0  0  0  0  0  0  0  0  0  0  0  0
  -35.4008  -16.7811   -0.2045 C   0  0  0  0  0  0  0  0  0  0  0  0
  -35.0781  -17.2663    1.2155 C   0  0  0  0  0  0  0  0  0  0  0  0
  -35.5284  -15.5723    2.1474 H   0  0  0  0  0  0  0  0  0  0  0  0
  -34.2579  -15.2424    4.4054 C   0  0  0  0  0  0  0  0  0  0  0  0
  -35.3320  -14.3429    4.6525 C   0  0  0  0  0  0  0  0  0  0  0  0
  -36.7027  -14.4842    4.0437 C   0  0  0  0  0  0  0  0  0  0  0  0
  -34.9894  -13.2883    5.5060 C   0  0  0  0  0  0  0  0  0  0  0  0
  -35.8830  -12.1833    5.9740 C   0  0  0  0  0  0  0  0  0  0  0  0
  -33.3979  -13.4734    5.9933 S   0  0  0  0  0  0  0  0  0  0  0  0
  -33.0996  -14.8778    5.1194 C   0  0  0  0  0  0  0  0  0  0  0  0
  -31.8387  -15.5645    5.1216 N   0  0  0  0  0  0  0  0  0  0  0  0
  -31.3068  -16.2093    6.2891 C   0  0  0  0  0  0  0  0  0  0  0  0
  -32.0749  -16.5115    7.2421 O   0  0  0  0  0  0  0  0  0  0  0  0
  -31.3167  -15.5945    4.2874 H   0  0  0  0  0  0  0  0  0  0  0  0
  -29.8699  -16.5605    6.3733 C   0  0  0  0  0  0  0  0  0  0  0  0
  -29.2687  -16.8576    7.6133 C   0  0  0  0  0  0  0  0  0  0  0  0
  -27.9204  -17.2264    7.6764 C   0  0  0  0  0  0  0  0  0  0  0  0
  -27.1601  -17.3056    6.5078 C   0  0  0  0  0  0  0  0  0  0  0  0
  -27.7450  -17.0142    5.2729 C   0  0  0  0  0  0  0  0  0  0  0  0
  -29.0945  -16.6522    5.2032 C   0  0  0  0  0  0  0  0  0  0  0  0
  -37.2180  -19.0148    4.5176 C   0  0  0  0  0  0  0  0  0  0  0  0
  -36.6165  -19.6052    5.6403 C   0  0  0  0  0  0  0  0  0  0  0  0
  -35.3455  -19.2022    6.0444 C   0  0  0  0  0  0  0  0  0  0  0  0
  -34.6666  -18.2063    5.3414 C   0  0  0  0  0  0  0  0  0  0  0  0
  -35.2394  -17.5928    4.2078 C   0  0  0  0  0  0  0  0  0  0  0  0
  -36.5276  -18.0231    3.8081 C   0  0  0  0  0  0  0  0  0  0  0  0
  -39.0594  -20.6787    4.2164 C   0  0  0  0  0  0  0  0  0  0  0  0
  -38.4995  -19.3778    4.0759 O   0  0  0  0  0  0  0  0  0  0  0  0
 33 34  1  0  0  0
 34 27  1  0  0  0
 27 28  2  0  0  0
 28 29  1  0  0  0
 29 30  2  0  0  0
 30 31  1  0  0  0
 31 32  2  0  0  0
  1 31  1  0  0  0
  1  2  1  0  0  0
  2  3  1  0  0  0
  3  4  1  0  0  0
  4  5  1  0  0  0
  5  6  1  0  0  0
  5  7  1  0  0  0
  7  8  1  0  0  0
  1 10  1  0  0  0
 10 11  1  0  0  0
 11 12  1  0  0  0
 11 13  2  0  0  0
 13 14  1  0  0  0
 13 15  1  0  0  0
 15 16  1  0  0  0
 16 17  1  0  0  0
 17 18  1  0  0  0
 18 19  2  0  0  0
 18 21  1  0  0  0
 21 22  2  0  0  0
 22 23  1  0  0  0
 23 24  2  0  0  0
 24 25  1  0  0  0
 25 26  2  0  0  0
 32 27  1  0  0  0
  8  2  1  0  0  0
 16 10  2  0  0  0
 26 21  1  0  0  0
  2  9  1  0  0  0
 17 20  1  0  0  0
M  CHG 1   2   1
M  END
> <minimizedAffinity>
-8.64060

> <newdefault_CNNaffinity>
6.63888

> <newdefault_CNNscore>
0.434505

> <CNNaffinity_times_score>
2.8846264

> <protein>
2xwd

$$$$
17517261


 36 39  0  0  0  0  0  0  0  0999 V2000
   -0.8540   -1.0942   39.2731 C   0  0  0  0  0  0  0  0  0  0  0  0
    0.4687   -0.6488   39.1550 C   0  0  0  0  0  0  0  0  0  0  0  0
    1.4644   -1.1855   39.9678 C   0  0  0  0  0  0  0  0  0  0  0  0
    1.1523   -2.1727   40.9165 C   0  0  0  0  0  0  0  0  0  0  0  0
   -0.1826   -2.6306   41.0501 C   0  0  0  0  0  0  0  0  0  0  0  0
   -1.1755   -2.0869   40.2131 C   0  0  0  0  0  0  0  0  0  0  0  0
    2.2016   -2.7189   41.7246 N   0  0  0  0  0  0  0  0  0  0  0  0
    2.5652   -2.0219   42.9666 C   0  0  0  0  0  0  0  0  0  0  0  0
    3.1347   -3.0135   43.9747 C   0  0  0  0  0  0  0  0  0  0  0  0
    4.1609   -3.8361   43.3268 N   0  0  0  0  0  0  0  0  0  0  0  0
    3.7858   -4.5631   42.1030 C   0  0  0  0  0  0  0  0  0  0  0  0
    3.1922   -3.5907   41.0830 C   0  0  0  0  0  0  0  0  0  0  0  0
    5.4415   -4.0395   43.9559 C   0  0  0  0  0  0  0  0  0  0  0  0
    6.1172   -5.2655   43.8220 C   0  0  0  0  0  0  0  0  0  0  0  0
    7.3782   -5.4471   44.3958 C   0  0  0  0  0  0  0  0  0  0  0  0
    7.9799   -4.4052   45.1131 C   0  0  0  0  0  0  0  0  0  0  0  0
    9.2469   -4.5626   45.6696 O   0  0  0  0  0  0  0  0  0  0  0  0
    7.3045   -3.1899   45.2677 C   0  0  0  0  0  0  0  0  0  0  0  0
    6.0443   -3.0052   44.6927 C   0  0  0  0  0  0  0  0  0  0  0  0
    9.7049   -5.3739   45.5699 H   0  0  0  0  0  0  0  0  0  0  0  0
   -2.0997   -0.3552   38.2755 S   0  0  0  0  0  0  0  0  0  0  0  0
   -3.3603   -1.1727   38.3283 O   0  0  0  0  0  0  0  0  0  0  0  0
   -1.6011   -0.2878   36.8570 O   0  0  0  0  0  0  0  0  0  0  0  0
   -2.4140    1.2461   38.8783 N   0  0  0  0  0  0  0  0  0  0  0  0
   -3.2979    1.6403   38.6976 H   0  0  0  0  0  0  0  0  0  0  0  0
    1.3733    4.4420   41.8400 C   0  0  0  0  0  0  0  0  0  0  0  0
    0.3900    3.5987   41.0821 C   0  0  0  0  0  0  0  0  0  0  0  0
    0.3777    3.6369   39.6856 C   0  0  0  0  0  0  0  0  0  0  0  0
   -0.5367    2.8685   38.9665 C   0  0  0  0  0  0  0  0  0  0  0  0
   -1.4626    2.0359   39.6273 C   0  0  0  0  0  0  0  0  0  0  0  0
   -1.4476    1.9939   41.0460 C   0  0  0  0  0  0  0  0  0  0  0  0
   -2.4061    1.1266   41.8175 C   0  0  0  0  0  0  0  0  0  0  0  0
   -0.5238    2.7797   41.7566 C   0  0  0  0  0  0  0  0  0  0  0  0
   -0.5431   -3.5915   42.0630 N   0  0  0  0  0  0  0  0  0  0  0  0
   -0.8590   -4.7550   41.7416 O   0  0  0  0  0  0  0  0  0  0  0  0
   -0.7632   -3.1856   43.3592 O   0  0  0  0  0  0  0  0  0  0  0  0
 26 27  1  0  0  0
 27 28  2  0  0  0
 28 29  1  0  0  0
 29 30  2  0  0  0
 30 24  1  0  0  0
 24 21  1  0  0  0
 21 22  2  0  0  0
 21 23  2  0  0  0
 21  1  1  0  0  0
  1  2  2  0  0  0
  2  3  1  0  0  0
  3  4  2  0  0  0
  4  7  1  0  0  0
  7  8  1  0  0  0
  8  9  1  0  0  0
  9 10  1  0  0  0
 10 11  1  0  0  0
 11 12  1  0  0  0
 10 13  1  0  0  0
 13 14  2  0  0  0
 14 15  1  0  0  0
 15 16  2  0  0  0
 16 17  1  0  0  0
 16 18  1  0  0  0
 18 19  2  0  0  0
  4  5  1  0  0  0
  5  6  2  0  0  0
  5 34  1  0  0  0
 34 35  2  0  0  0
 34 36  1  0  0  0
 30 31  1  0  0  0
 31 32  1  0  0  0
 31 33  2  0  0  0
 33 27  1  0  0  0
  6  1  1  0  0  0
 12  7  1  0  0  0
 19 13  1  0  0  0
 24 25  1  0  0  0
 17 20  1  0  0  0
M  CHG 1  34   1
M  CHG 1  36  -1
M  END
> <minimizedAffinity>
-6.87036

> <newdefault_CNNaffinity>
5.7853

> <newdefault_CNNscore>
0.385406

> <CNNaffinity_times_score>
2.2296891

> <protein>
3rik

$$$$
22400917


 43 45  0  0  0  0  0  0  0  0999 V2000
   38.0062   28.0857   -8.7333 C   0  0  0  0  0  0  0  0  0  0  0  0
   38.1500   28.3670  -10.0976 C   0  0  0  0  0  0  0  0  0  0  0  0
   37.1946   29.2508  -10.4999 N   0  0  0  0  0  0  0  0  0  0  0  0
   36.9069   29.6745  -11.8744 C   0  0  0  0  0  0  0  0  0  0  0  0
   36.4535   29.5267   -9.4049 C   0  0  0  0  0  0  0  0  0  0  0  0
   35.3367   30.3604   -9.3119 C   0  0  0  0  0  0  0  0  0  0  0  0
   34.7252   30.5254   -8.0587 C   0  0  0  0  0  0  0  0  0  0  0  0
   33.2125   31.6883   -7.9158 Br  0  0  0  0  0  0  0  0  0  0  0  0
   35.2158   29.8426   -6.9202 C   0  0  0  0  0  0  0  0  0  0  0  0
   36.3180   28.9650   -7.0571 C   0  0  0  0  0  0  0  0  0  0  0  0
   36.9272   28.8481   -8.3109 C   0  0  0  0  0  0  0  0  0  0  0  0
   38.8086   27.1530   -7.9161 C   0  0  0  0  0  0  0  0  0  0  0  0
   39.9816   27.4664   -7.5761 O   0  0  0  0  0  0  0  0  0  0  0  0
   38.2533   25.9367   -7.5053 O   0  0  0  0  0  0  0  0  0  0  0  0
   37.6935   23.8516   -8.5725 C   0  0  0  0  0  0  0  0  0  0  0  0
   37.2195   25.2533   -8.2125 C   0  0  0  0  0  0  0  0  0  0  0  0
   39.2060   27.7954  -11.0064 C   0  0  0  0  0  0  0  0  0  0  0  0
   38.7665   26.0898  -11.4702 S   0  0  0  0  0  0  0  0  0  0  0  0
   40.4509   25.4898  -11.3273 C   0  0  0  0  0  0  0  0  0  0  0  0
   41.2920   25.4799  -12.4466 C   0  0  0  0  0  0  0  0  0  0  0  0
   42.6038   25.0072  -12.3332 C   0  0  0  0  0  0  0  0  0  0  0  0
   43.0752   24.5436  -11.1026 C   0  0  0  0  0  0  0  0  0  0  0  0
   42.2387   24.5601   -9.9821 C   0  0  0  0  0  0  0  0  0  0  0  0
   40.9268   25.0307  -10.0927 C   0  0  0  0  0  0  0  0  0  0  0  0
   34.5931   30.0739   -5.6826 O   0  0  0  0  0  0  0  0  0  0  0  0
   35.0603   29.5793   -4.4304 C   0  0  0  0  0  0  0  0  0  0  0  0
   35.5343   30.7296   -3.5236 C   0  0  0  0  0  0  0  0  0  0  0  0
   36.9406   30.7545   -3.5217 O   0  0  0  0  0  0  0  0  0  0  0  0
   37.2782   29.9191   -3.1626 H   0  0  0  0  0  0  0  0  0  0  0  0
   35.0368   30.5823   -2.0614 C   0  0  0  0  0  0  0  0  0  0  0  0
   33.9328   31.5220   -1.7255 N   0  0  0  0  0  0  0  0  0  0  0  0
   33.2523   31.0125   -1.1618 H   0  0  0  0  0  0  0  0  0  0  0  0
   33.5760   31.8523   -2.6221 H   0  0  0  0  0  0  0  0  0  0  0  0
   34.3161   32.7565   -0.9709 C   0  0  0  0  0  0  0  0  0  0  0  0
   33.3999   32.9862    0.2716 C   0  0  0  0  0  0  0  0  0  0  0  0
   33.6879   32.0831    1.3064 O   0  0  0  0  0  0  0  0  0  0  0  0
   33.5343   31.1768    0.9966 H   0  0  0  0  0  0  0  0  0  0  0  0
   35.7980   32.6679   -0.5012 C   0  0  0  0  0  0  0  0  0  0  0  0
   36.0732   33.6343    0.4771 O   0  0  0  0  0  0  0  0  0  0  0  0
   35.9258   34.5192    0.1079 H   0  0  0  0  0  0  0  0  0  0  0  0
   34.1982   33.9879   -1.9246 C   0  0  0  0  0  0  0  0  0  0  0  0
   35.4393   34.3449   -2.4705 O   0  0  0  0  0  0  0  0  0  0  0  0
   36.0485   34.5889   -1.7562 H   0  0  0  0  0  0  0  0  0  0  0  0
 15 16  1  0  0  0
 16 14  1  0  0  0
 14 12  1  0  0  0
 12 13  2  0  0  0
 12  1  1  0  0  0
  1  2  2  0  0  0
  2 17  1  0  0  0
 17 18  1  0  0  0
 18 19  1  0  0  0
 19 20  2  0  0  0
 20 21  1  0  0  0
 21 22  2  0  0  0
 22 23  1  0  0  0
 23 24  2  0  0  0
  2  3  1  0  0  0
  3  4  1  0  0  0
  3  5  1  0  0  0
  5  6  2  0  0  0
  6  7  1  0  0  0
  7  8  1  0  0  0
  7  9  2  0  0  0
  9 25  1  0  0  0
 25 26  1  0  0  0
 26 27  1  0  0  0
 27 28  1  0  0  0
 27 30  1  0  0  0
 30 31  1  0  0  0
 31 34  1  0  0  0
 34 35  1  0  0  0
 35 36  1  0  0  0
 34 38  1  0  0  0
 38 39  1  0  0  0
 34 41  1  0  0  0
 41 42  1  0  0  0
  9 10  1  0  0  0
 10 11  2  0  0  0
 11  1  1  0  0  0
 24 19  1  0  0  0
 11  5  1  0  0  0
 28 29  1  0  0  0
 31 32  1  0  0  0
 31 33  1  0  0  0
 36 37  1  0  0  0
 39 40  1  0  0  0
 42 43  1  0  0  0
M  CHG 1  31   1
M  END
> <minimizedAffinity>
-7.02257

> <newdefault_CNNaffinity>
6.39579

> <newdefault_CNNscore>
0.521485

> <CNNaffinity_times_score>
3.3353083

> <protein>
2v3d

$$$$
22403961


 38 43  0  0  0  0  0  0  0  0999 V2000
  -36.4836  -18.0551    3.3640 N   0  0  0  0  0  0  0  0  0  0  0  0
  -35.4385  -17.3402    3.6925 C   0  0  0  0  0  0  0  0  0  0  0  0
  -34.5301  -16.9030    2.7389 N   0  0  0  0  0  0  0  0  0  0  0  0
  -33.5045  -16.0535    3.0952 C   0  0  0  0  0  0  0  0  0  0  0  0
  -33.3346  -15.6515    4.3831 N   0  0  0  0  0  0  0  0  0  0  0  0
  -34.1888  -16.1005    5.3281 C   0  0  0  0  0  0  0  0  0  0  0  0
  -35.2238  -16.9423    5.0310 C   0  0  0  0  0  0  0  0  0  0  0  0
  -35.8469  -17.2197    6.2471 C   0  0  0  0  0  0  0  0  0  0  0  0
  -35.1244  -16.5246    7.2189 C   0  0  0  0  0  0  0  0  0  0  0  0
  -34.1223  -15.8139    6.6423 N   0  0  0  0  0  0  0  0  0  0  0  0
  -36.6205  -18.3253    2.4273 H   0  0  0  0  0  0  0  0  0  0  0  0
  -37.1333  -18.3229    4.0536 H   0  0  0  0  0  0  0  0  0  0  0  0
  -36.8673  -18.2390    6.5272 C   0  0  0  0  0  0  0  0  0  0  0  0
  -38.2133  -17.8709    6.6746 C   0  0  0  0  0  0  0  0  0  0  0  0
  -39.1799  -18.8463    6.9410 C   0  0  0  0  0  0  0  0  0  0  0  0
  -38.8060  -20.1880    7.0663 C   0  0  0  0  0  0  0  0  0  0  0  0
  -37.4635  -20.5561    6.9287 C   0  0  0  0  0  0  0  0  0  0  0  0
  -36.4949  -19.5842    6.6598 C   0  0  0  0  0  0  0  0  0  0  0  0
  -35.3154  -16.6761    8.6770 C   0  0  0  0  0  0  0  0  0  0  0  0
  -34.7032  -17.7341    9.3698 C   0  0  0  0  0  0  0  0  0  0  0  0
  -34.8578  -17.8501   10.7536 C   0  0  0  0  0  0  0  0  0  0  0  0
  -35.6069  -16.9006   11.4559 C   0  0  0  0  0  0  0  0  0  0  0  0
  -36.2032  -15.8360   10.7746 C   0  0  0  0  0  0  0  0  0  0  0  0
  -36.0652  -15.7260    9.3896 C   0  0  0  0  0  0  0  0  0  0  0  0
  -34.6167  -17.2822    1.3142 C   0  0  0  0  0  0  0  0  0  0  0  0
  -34.4794  -16.0396    0.4247 C   0  0  0  0  0  0  0  0  0  0  0  0
  -35.8387  -15.4728   -0.0065 C   0  0  0  0  0  0  0  0  0  0  0  0
  -36.4674  -16.2996   -1.0368 N   0  0  0  0  0  0  0  0  0  0  0  0
  -36.3671  -16.1421   -2.3659 C   0  0  0  0  0  0  0  0  0  0  0  0
  -37.0934  -17.1438   -2.9674 C   0  0  0  0  0  0  0  0  0  0  0  0
  -37.6476  -17.9298   -2.0211 N   0  0  0  0  0  0  0  0  0  0  0  0
  -37.2374  -17.3900   -0.8533 C   0  0  0  0  0  0  0  0  0  0  0  0
  -33.1345  -14.9538    7.3031 C   0  0  0  0  0  0  0  0  0  0  0  0
  -31.9462  -15.7525    7.7437 C   0  0  0  0  0  0  0  0  0  0  0  0
  -31.1983  -16.4641    6.9320 O   0  0  0  0  0  0  0  0  0  0  0  0
  -30.2486  -17.0380    7.6346 C   0  0  0  0  0  0  0  0  0  0  0  0
  -30.3779  -16.6869    8.9651 C   0  0  0  0  0  0  0  0  0  0  0  0
  -31.4756  -15.8560    9.0382 C   0  0  0  0  0  0  0  0  0  0  0  0
  1  2  2  0  0  0
  2  3  1  0  0  0
  3 25  1  0  0  0
 25 26  1  0  0  0
 26 27  1  0  0  0
 27 28  1  0  0  0
 28 29  1  0  0  0
 29 30  2  0  0  0
 30 31  1  0  0  0
 31 32  2  0  0  0
  3  4  1  0  0  0
  4  5  2  0  0  0
  5  6  1  0  0  0
  6  7  2  0  0  0
  7  8  1  0  0  0
  8 13  1  0  0  0
 13 14  2  0  0  0
 14 15  1  0  0  0
 15 16  2  0  0  0
 16 17  1  0  0  0
 17 18  2  0  0  0
  8  9  2  0  0  0
  9 19  1  0  0  0
 19 20  2  0  0  0
 20 21  1  0  0  0
 21 22  2  0  0  0
 22 23  1  0  0  0
 23 24  2  0  0  0
  9 10  1  0  0  0
 10 33  1  0  0  0
 33 34  1  0  0  0
 34 35  1  0  0  0
 35 36  1  0  0  0
 36 37  2  0  0  0
 37 38  1  0  0  0
  7  2  1  0  0  0
 32 28  1  0  0  0
 10  6  1  0  0  0
 18 13  1  0  0  0
 24 19  1  0  0  0
 38 34  2  0  0  0
  1 11  1  0  0  0
  1 12  1  0  0  0
M  CHG 1   1   1
M  END
> <minimizedAffinity>
-7.49025

> <newdefault_CNNaffinity>
7.56013

> <newdefault_CNNscore>
0.819778

> <CNNaffinity_times_score>
6.1976285

> <protein>
2xwe

$$$$
22404368


 34 38  0  0  0  0  0  0  0  0999 V2000
   36.3824   30.0540   -5.6243 N   0  0  0  0  0  0  0  0  0  0  0  0
   35.0590   29.6061   -5.3681 C   0  0  0  0  0  0  0  0  0  0  0  0
   34.5725   28.5568   -5.8741 O   0  0  0  0  0  0  0  0  0  0  0  0
   34.2746   30.5448   -4.5127 C   0  0  0  0  0  0  0  0  0  0  0  0
   35.2810   31.6745   -4.1741 C   0  0  0  0  0  0  0  0  0  0  0  0
   36.5088   31.3014   -4.9549 C   0  0  0  0  0  0  0  0  0  0  0  0
   37.5342   32.0231   -5.0316 O   0  0  0  0  0  0  0  0  0  0  0  0
   35.5009   31.7961   -2.7067 N   0  0  0  0  0  0  0  0  0  0  0  0
   34.7223   30.8049   -1.9460 C   0  0  0  0  0  0  0  0  0  0  0  0
   35.3067   30.6878   -0.5244 C   0  0  0  0  0  0  0  0  0  0  0  0
   35.8549   31.9814   -0.0299 N   0  0  0  0  0  0  0  0  0  0  0  0
   35.1625   33.1506   -0.6198 C   0  0  0  0  0  0  0  0  0  0  0  0
   35.3051   33.1636   -2.1599 C   0  0  0  0  0  0  0  0  0  0  0  0
   36.8179   32.0287   -0.3626 H   0  0  0  0  0  0  0  0  0  0  0  0
   35.9485   32.0427    1.4551 C   0  0  0  0  0  0  0  0  0  0  0  0
   37.2250   31.4471    2.0903 C   0  0  0  0  0  0  0  0  0  0  0  0
   37.1717   30.0520    2.1703 O   0  0  0  0  0  0  0  0  0  0  0  0
   36.4248   29.7885    2.7303 H   0  0  0  0  0  0  0  0  0  0  0  0
   39.2106   28.0534   -8.1070 C   0  0  0  0  0  0  0  0  0  0  0  0
   38.3105   28.9799   -8.6578 C   0  0  0  0  0  0  0  0  0  0  0  0
   37.3846   29.6371   -7.8458 C   0  0  0  0  0  0  0  0  0  0  0  0
   37.3573   29.4060   -6.4618 C   0  0  0  0  0  0  0  0  0  0  0  0
   38.2858   28.5161   -5.9044 C   0  0  0  0  0  0  0  0  0  0  0  0
   39.2042   27.8478   -6.7175 C   0  0  0  0  0  0  0  0  0  0  0  0
   43.8179   23.4863  -12.2142 C   0  0  0  0  0  0  0  0  0  0  0  0
   43.1679   24.6187  -11.4767 C   0  0  0  0  0  0  0  0  0  0  0  0
   43.8539   25.8492  -11.3357 C   0  0  0  0  0  0  0  0  0  0  0  0
   43.2641   26.9258  -10.6498 C   0  0  0  0  0  0  0  0  0  0  0  0
   41.9891   26.7571  -10.1030 C   0  0  0  0  0  0  0  0  0  0  0  0
   41.3192   27.7084   -9.4038 N   0  0  0  0  0  0  0  0  0  0  0  0
   40.1114   27.2563   -8.9733 C   0  0  0  0  0  0  0  0  0  0  0  0
   39.8483   25.6486   -9.4478 S   0  0  0  0  0  0  0  0  0  0  0  0
   41.3291   25.5467  -10.2320 C   0  0  0  0  0  0  0  0  0  0  0  0
   41.8815   24.4660  -10.9149 C   0  0  0  0  0  0  0  0  0  0  0  0
 25 26  1  0  0  0
 26 27  2  0  0  0
 27 28  1  0  0  0
 28 29  2  0  0  0
 29 30  1  0  0  0
 30 31  2  0  0  0
 31 32  1  0  0  0
 32 33  1  0  0  0
 33 34  2  0  0  0
 31 19  1  0  0  0
 19 20  2  0  0  0
 20 21  1  0  0  0
 21 22  2  0  0  0
 22 23  1  0  0  0
 23 24  2  0  0  0
 22  1  1  0  0  0
  1  2  1  0  0  0
  2  3  2  0  0  0
  2  4  1  0  0  0
  4  5  1  0  0  0
  5  8  1  0  0  0
  8  9  1  0  0  0
  9 10  1  0  0  0
 10 11  1  0  0  0
 11 15  1  0  0  0
 15 16  1  0  0  0
 16 17  1  0  0  0
 11 12  1  0  0  0
 12 13  1  0  0  0
  5  6  1  0  0  0
  6  7  2  0  0  0
 34 26  1  0  0  0
 33 29  1  0  0  0
 24 19  1  0  0  0
  6  1  1  0  0  0
 13  8  1  0  0  0
 11 14  1  0  0  0
 17 18  1  0  0  0
M  CHG 1  11   1
M  END
> <minimizedAffinity>
-9.01735

> <newdefault_CNNaffinity>
7.09273

> <newdefault_CNNscore>
0.889261

> <CNNaffinity_times_score>
6.307288

> <protein>
2v3d

$$$$
22404737


 31 35  0  0  0  0  0  0  0  0999 V2000
   35.0903   31.7586   -4.5234 N   0  0  0  0  0  0  0  0  0  0  0  0
   36.4183   32.1423   -4.0063 C   0  0  0  0  0  0  0  0  0  0  0  0
   36.3812   33.5761   -3.4773 C   0  0  0  0  0  0  0  0  0  0  0  0
   35.8616   34.4595   -4.5210 N   0  0  0  0  0  0  0  0  0  0  0  0
   34.6087   34.0857   -5.1791 C   0  0  0  0  0  0  0  0  0  0  0  0
   34.6998   32.6290   -5.6483 C   0  0  0  0  0  0  0  0  0  0  0  0
   36.6845   35.5023   -5.0624 C   0  0  0  0  0  0  0  0  0  0  0  0
   36.4983   36.7771   -4.6332 N   0  0  0  0  0  0  0  0  0  0  0  0
   37.2644   37.8044   -5.0865 C   0  0  0  0  0  0  0  0  0  0  0  0
   38.2444   37.5655   -5.9984 N   0  0  0  0  0  0  0  0  0  0  0  0
   38.4757   36.3118   -6.4687 C   0  0  0  0  0  0  0  0  0  0  0  0
   39.4792   36.0950   -7.4206 C   0  0  0  0  0  0  0  0  0  0  0  0
   39.7094   34.8068   -7.9138 C   0  0  0  0  0  0  0  0  0  0  0  0
   38.9367   33.7332   -7.4594 C   0  0  0  0  0  0  0  0  0  0  0  0
   37.9258   33.9399   -6.5152 C   0  0  0  0  0  0  0  0  0  0  0  0
   37.6930   35.2300   -6.0061 C   0  0  0  0  0  0  0  0  0  0  0  0
   37.0529   39.1611   -4.5619 C   0  0  0  0  0  0  0  0  0  0  0  0
   37.8807   39.8329   -3.6654 C   0  0  0  0  0  0  0  0  0  0  0  0
   37.3859   41.0901   -3.2949 C   0  0  0  0  0  0  0  0  0  0  0  0
   36.1707   41.4086   -3.8908 C   0  0  0  0  0  0  0  0  0  0  0  0
   35.7166   40.1316   -4.8900 S   0  0  0  0  0  0  0  0  0  0  0  0
   35.1289   30.0949   -5.0520 S   0  0  0  0  0  0  0  0  0  0  0  0
   34.9040   29.1771   -3.8824 O   0  0  0  0  0  0  0  0  0  0  0  0
   34.0532   29.8610   -6.0773 O   0  0  0  0  0  0  0  0  0  0  0  0
   40.7539   28.7760   -7.6151 Cl  0  0  0  0  0  0  0  0  0  0  0  0
   39.1990   29.1526   -6.8935 C   0  0  0  0  0  0  0  0  0  0  0  0
   38.8463   28.5961   -5.6578 C   0  0  0  0  0  0  0  0  0  0  0  0
   37.6044   28.8897   -5.0853 C   0  0  0  0  0  0  0  0  0  0  0  0
   36.7061   29.7359   -5.7512 C   0  0  0  0  0  0  0  0  0  0  0  0
   37.0683   30.3009   -6.9834 C   0  0  0  0  0  0  0  0  0  0  0  0
   38.3096   30.0062   -7.5548 C   0  0  0  0  0  0  0  0  0  0  0  0
 25 26  1  0  0  0
 26 27  2  0  0  0
 27 28  1  0  0  0
 28 29  2  0  0  0
 29 30  1  0  0  0
 30 31  2  0  0  0
 29 22  1  0  0  0
 22 23  2  0  0  0
 22 24  2  0  0  0
 22  1  1  0  0  0
  1  2  1  0  0  0
  2  3  1  0  0  0
  3  4  1  0  0  0
  4  5  1  0  0  0
  5  6  1  0  0  0
  4  7  1  0  0  0
  7  8  2  0  0  0
  8  9  1  0  0  0
  9 10  2  0  0  0
 10 11  1  0  0  0
 11 12  2  0  0  0
 12 13  1  0  0  0
 13 14  2  0  0  0
 14 15  1  0  0  0
 15 16  2  0  0  0
  9 17  1  0  0  0
 17 18  2  0  0  0
 18 19  1  0  0  0
 19 20  2  0  0  0
 20 21  1  0  0  0
 31 26  1  0  0  0
  6  1  1  0  0  0
 16  7  1  0  0  0
 16 11  1  0  0  0
 21 17  1  0  0  0
M  END
> <minimizedAffinity>
-7.95062

> <newdefault_CNNaffinity>
6.22773

> <newdefault_CNNscore>
0.401032

> <CNNaffinity_times_score>
2.497519

> <protein>
2v3e

$$$$
22406655


 36 41  0  0  0  0  0  0  0  0999 V2000
  -35.7669  -18.0151    3.6852 C   0  0  0  0  0  0  0  0  0  0  0  0
  -36.8995  -18.7528    3.5366 N   0  0  0  0  0  0  0  0  0  0  0  0
  -37.6109  -19.2044    4.5933 C   0  0  0  0  0  0  0  0  0  0  0  0
  -38.7686  -19.9659    4.3832 C   0  0  0  0  0  0  0  0  0  0  0  0
  -39.4823  -20.4650    5.4766 C   0  0  0  0  0  0  0  0  0  0  0  0
  -39.0437  -20.2026    6.7792 C   0  0  0  0  0  0  0  0  0  0  0  0
  -37.8934  -19.4359    6.9950 C   0  0  0  0  0  0  0  0  0  0  0  0
  -37.1661  -18.9327    5.8975 C   0  0  0  0  0  0  0  0  0  0  0  0
  -35.9965  -18.1698    6.0545 C   0  0  0  0  0  0  0  0  0  0  0  0
  -35.5711  -17.9277    7.2208 O   0  0  0  0  0  0  0  0  0  0  0  0
  -35.3143  -17.6974    4.9534 N   0  0  0  0  0  0  0  0  0  0  0  0
  -35.0291  -17.6605    2.4031 C   0  0  0  0  0  0  0  0  0  0  0  0
  -34.0120  -14.8864   -1.6647 C   0  0  0  0  0  0  0  0  0  0  0  0
  -35.1068  -14.8939   -0.6805 N   0  0  0  0  0  0  0  0  0  0  0  0
  -36.0104  -16.0554   -0.8876 C   0  0  0  0  0  0  0  0  0  0  0  0
  -35.6914  -17.2106    0.0790 C   0  0  0  0  0  0  0  0  0  0  0  0
  -35.8539  -16.7998    1.5040 N   0  0  0  0  0  0  0  0  0  0  0  0
  -35.5775  -15.3499    1.7202 C   0  0  0  0  0  0  0  0  0  0  0  0
  -34.5667  -14.8042    0.6977 C   0  0  0  0  0  0  0  0  0  0  0  0
  -36.8351  -16.9390    1.7451 H   0  0  0  0  0  0  0  0  0  0  0  0
  -34.0858  -16.9027    5.1709 C   0  0  0  0  0  0  0  0  0  0  0  0
  -34.3744  -15.4279    5.2061 C   0  0  0  0  0  0  0  0  0  0  0  0
  -35.5439  -14.9286    5.6575 N   0  0  0  0  0  0  0  0  0  0  0  0
  -35.5976  -13.5698    5.5749 C   0  0  0  0  0  0  0  0  0  0  0  0
  -34.4468  -12.9750    5.0430 C   0  0  0  0  0  0  0  0  0  0  0  0
  -33.3514  -14.1948    4.6838 S   0  0  0  0  0  0  0  0  0  0  0  0
  -36.7897  -12.8147    6.0418 C   0  0  0  0  0  0  0  0  0  0  0  0
  -36.8187  -11.4067    6.0279 C   0  0  0  0  0  0  0  0  0  0  0  0
  -37.9422  -10.7108    6.4795 C   0  0  0  0  0  0  0  0  0  0  0  0
  -39.0619  -11.4092    6.9560 C   0  0  0  0  0  0  0  0  0  0  0  0
  -40.1981  -10.7187    7.4154 C   0  0  0  0  0  0  0  0  0  0  0  0
  -41.2939  -11.4268    7.9138 C   0  0  0  0  0  0  0  0  0  0  0  0
  -41.2791  -12.8257    7.9308 C   0  0  0  0  0  0  0  0  0  0  0  0
  -40.1616  -13.5247    7.4689 C   0  0  0  0  0  0  0  0  0  0  0  0
  -39.0409  -12.8241    6.9885 C   0  0  0  0  0  0  0  0  0  0  0  0
  -37.9080  -13.5139    6.5334 C   0  0  0  0  0  0  0  0  0  0  0  0
 13 14  1  0  0  0
 14 15  1  0  0  0
 15 16  1  0  0  0
 16 17  1  0  0  0
 17 12  1  0  0  0
 12  1  1  0  0  0
  1  2  2  0  0  0
  2  3  1  0  0  0
  3  4  2  0  0  0
  4  5  1  0  0  0
  5  6  2  0  0  0
  6  7  1  0  0  0
  7  8  2  0  0  0
  8  9  1  0  0  0
  9 10  2  0  0  0
  9 11  1  0  0  0
 11 21  1  0  0  0
 21 22  1  0  0  0
 22 23  2  0  0  0
 23 24  1  0  0  0
 24 25  2  0  0  0
 25 26  1  0  0  0
 24 27  1  0  0  0
 27 28  2  0  0  0
 28 29  1  0  0  0
 29 30  2  0  0  0
 30 31  1  0  0  0
 31 32  2  0  0  0
 32 33  1  0  0  0
 33 34  2  0  0  0
 34 35  1  0  0  0
 35 36  2  0  0  0
 17 18  1  0  0  0
 18 19  1  0  0  0
 19 14  1  0  0  0
 11  1  1  0  0  0
  8  3  1  0  0  0
 26 22  1  0  0  0
 36 27  1  0  0  0
 35 30  1  0  0  0
 17 20  1  0  0  0
M  CHG 1  17   1
M  END
> <minimizedAffinity>
-8.14166

> <newdefault_CNNaffinity>
7.57331

> <newdefault_CNNscore>
0.78863

> <CNNaffinity_times_score>
5.9725394

> <protein>
2xwd

$$$$
22409178


 40 45  0  0  0  0  0  0  0  0999 V2000
  -31.2800  -16.0555    5.9356 C   0  0  0  0  0  0  0  0  0  0  0  0
  -30.8683  -14.8638    5.9481 O   0  0  0  0  0  0  0  0  0  0  0  0
  -30.5541  -17.0728    6.6537 N   0  0  0  0  0  0  0  0  0  0  0  0
  -30.5808  -17.9958    6.3123 H   0  0  0  0  0  0  0  0  0  0  0  0
  -29.7927  -16.8060    7.8445 C   0  0  0  0  0  0  0  0  0  0  0  0
  -30.4253  -16.2947    9.3236 S   0  0  0  0  0  0  0  0  0  0  0  0
  -28.9537  -16.2897   10.1361 C   0  0  0  0  0  0  0  0  0  0  0  0
  -28.7503  -15.9537   11.5799 C   0  0  0  0  0  0  0  0  0  0  0  0
  -27.2722  -15.6234   11.8482 C   0  0  0  0  0  0  0  0  0  0  0  0
  -26.3521  -16.6996   11.2476 C   0  0  0  0  0  0  0  0  0  0  0  0
  -26.5015  -16.7920    9.7176 C   0  0  0  0  0  0  0  0  0  0  0  0
  -27.9475  -16.7329    9.2808 C   0  0  0  0  0  0  0  0  0  0  0  0
  -28.4129  -17.0014    7.9765 C   0  0  0  0  0  0  0  0  0  0  0  0
  -27.5580  -17.5059    6.8892 C   0  0  0  0  0  0  0  0  0  0  0  0
  -27.4372  -16.8758    5.6889 N   0  0  0  0  0  0  0  0  0  0  0  0
  -26.6004  -17.6843    5.0133 C   0  0  0  0  0  0  0  0  0  0  0  0
  -26.1407  -17.5376    3.7065 C   0  0  0  0  0  0  0  0  0  0  0  0
  -25.2787  -18.5316    3.2017 C   0  0  0  0  0  0  0  0  0  0  0  0
  -24.9013  -19.6295    4.0086 C   0  0  0  0  0  0  0  0  0  0  0  0
  -25.3985  -19.7552    5.3195 C   0  0  0  0  0  0  0  0  0  0  0  0
  -26.2465  -18.7520    5.7835 C   0  0  0  0  0  0  0  0  0  0  0  0
  -26.8409  -18.6531    6.9770 N   0  0  0  0  0  0  0  0  0  0  0  0
  -26.7735  -19.2697    7.7415 H   0  0  0  0  0  0  0  0  0  0  0  0
  -34.1938  -15.7496    3.5090 C   0  0  0  0  0  0  0  0  0  0  0  0
  -34.8131  -16.9963    3.6665 C   0  0  0  0  0  0  0  0  0  0  0  0
  -34.2888  -17.9340    4.5569 C   0  0  0  0  0  0  0  0  0  0  0  0
  -33.1450  -17.6355    5.3003 C   0  0  0  0  0  0  0  0  0  0  0  0
  -32.4919  -16.3971    5.1416 C   0  0  0  0  0  0  0  0  0  0  0  0
  -33.0335  -15.4571    4.2404 C   0  0  0  0  0  0  0  0  0  0  0  0
  -34.8953  -14.5464    2.4194 S   0  0  0  0  0  0  0  0  0  0  0  0
  -36.2525  -14.1551    2.9381 O   0  0  0  0  0  0  0  0  0  0  0  0
  -34.0314  -13.3175    2.4123 O   0  0  0  0  0  0  0  0  0  0  0  0
  -36.1630  -15.3962   -2.1314 C   0  0  0  0  0  0  0  0  0  0  0  0
  -35.0160  -16.2255   -1.7150 N   0  0  0  0  0  0  0  0  0  0  0  0
  -33.8363  -15.3976   -1.3856 C   0  0  0  0  0  0  0  0  0  0  0  0
  -34.0246  -14.5828   -0.0859 C   0  0  0  0  0  0  0  0  0  0  0  0
  -35.0636  -15.1565    0.7906 N   0  0  0  0  0  0  0  0  0  0  0  0
  -35.0050  -16.6216    0.7846 C   0  0  0  0  0  0  0  0  0  0  0  0
  -35.3790  -17.1561   -0.6109 C   0  0  0  0  0  0  0  0  0  0  0  0
  -34.7553  -16.8061   -2.5120 H   0  0  0  0  0  0  0  0  0  0  0  0
 33 34  1  0  0  0
 34 35  1  0  0  0
 35 36  1  0  0  0
 36 37  1  0  0  0
 37 38  1  0  0  0
 38 39  1  0  0  0
 37 30  1  0  0  0
 30 31  2  0  0  0
 30 32  2  0  0  0
 30 24  1  0  0  0
 24 25  2  0  0  0
 25 26  1  0  0  0
 26 27  2  0  0  0
 27 28  1  0  0  0
 28 29  2  0  0  0
 28  1  1  0  0  0
  1  2  2  0  0  0
  1  3  1  0  0  0
  3  5  1  0  0  0
  5  6  1  0  0  0
  6  7  1  0  0  0
  7  8  1  0  0  0
  8  9  1  0  0  0
  9 10  1  0  0  0
 10 11  1  0  0  0
 11 12  1  0  0  0
 12 13  1  0  0  0
 13 14  1  0  0  0
 14 15  2  0  0  0
 15 16  1  0  0  0
 16 17  2  0  0  0
 17 18  1  0  0  0
 18 19  2  0  0  0
 19 20  1  0  0  0
 20 21  2  0  0  0
 21 22  1  0  0  0
 39 34  1  0  0  0
 29 24  1  0  0  0
 13  5  2  0  0  0
 12  7  2  0  0  0
 22 14  1  0  0  0
 21 16  1  0  0  0
 34 40  1  0  0  0
  3  4  1  0  0  0
 22 23  1  0  0  0
M  CHG 1  34   1
M  END
> <minimizedAffinity>
-10.93485

> <newdefault_CNNaffinity>
7.36553

> <newdefault_CNNscore>
0.690206

> <CNNaffinity_times_score>
5.083733

> <protein>
2xwd

$$$$
22409679


 24 27  0  0  0  0  0  0  0  0999 V2000
   35.5420   30.2491   -4.1481 C   0  0  0  0  0  0  0  0  0  0  0  0
   35.4974   30.7463   -2.8811 N   0  0  0  0  0  0  0  0  0  0  0  0
   34.5290   31.6026   -2.4695 C   0  0  0  0  0  0  0  0  0  0  0  0
   33.5569   31.9832   -3.3346 N   0  0  0  0  0  0  0  0  0  0  0  0
   33.5326   31.5275   -4.6118 C   0  0  0  0  0  0  0  0  0  0  0  0
   32.5145   31.9521   -5.4720 C   0  0  0  0  0  0  0  0  0  0  0  0
   32.4800   31.5043   -6.7924 C   0  0  0  0  0  0  0  0  0  0  0  0
   33.4627   30.6315   -7.2601 C   0  0  0  0  0  0  0  0  0  0  0  0
   34.4863   30.1981   -6.4117 C   0  0  0  0  0  0  0  0  0  0  0  0
   34.5359   30.6379   -5.0704 C   0  0  0  0  0  0  0  0  0  0  0  0
   34.5445   32.1291   -1.0978 C   0  0  0  0  0  0  0  0  0  0  0  0
   33.5136   32.8263   -0.4776 C   0  0  0  0  0  0  0  0  0  0  0  0
   33.8266   33.2304    0.8262 C   0  0  0  0  0  0  0  0  0  0  0  0
   35.0979   32.8524    1.2385 C   0  0  0  0  0  0  0  0  0  0  0  0
   35.8340   32.0183   -0.0220 S   0  0  0  0  0  0  0  0  0  0  0  0
   36.6167   29.3546   -4.5030 N   0  0  0  0  0  0  0  0  0  0  0  0
   36.4929   28.3864   -4.3742 H   0  0  0  0  0  0  0  0  0  0  0  0
   37.8855   29.8399   -5.0484 C   0  0  0  0  0  0  0  0  0  0  0  0
   38.3428   28.9629   -6.1842 C   0  0  0  0  0  0  0  0  0  0  0  0
   39.6271   29.1156   -6.7337 C   0  0  0  0  0  0  0  0  0  0  0  0
   40.0315   28.3199   -7.8097 C   0  0  0  0  0  0  0  0  0  0  0  0
   39.1644   27.3572   -8.3343 C   0  0  0  0  0  0  0  0  0  0  0  0
   37.8906   27.1890   -7.7837 C   0  0  0  0  0  0  0  0  0  0  0  0
   37.4805   27.9864   -6.7108 C   0  0  0  0  0  0  0  0  0  0  0  0
 18 16  1  0  0  0
 16  1  1  0  0  0
  1  2  2  0  0  0
  2  3  1  0  0  0
  3  4  2  0  0  0
  4  5  1  0  0  0
  5  6  2  0  0  0
  6  7  1  0  0  0
  7  8  2  0  0  0
  8  9  1  0  0  0
  9 10  2  0  0  0
  3 11  1  0  0  0
 11 12  2  0  0  0
 12 13  1  0  0  0
 13 14  2  0  0  0
 14 15  1  0  0  0
 18 19  1  0  0  0
 19 20  2  0  0  0
 20 21  1  0  0  0
 21 22  2  0  0  0
 22 23  1  0  0  0
 23 24  2  0  0  0
 10  1  1  0  0  0
 10  5  1  0  0  0
 15 11  1  0  0  0
 24 19  1  0  0  0
 16 17  1  0  0  0
M  END
> <minimizedAffinity>
-8.04070

> <newdefault_CNNaffinity>
5.57026

> <newdefault_CNNscore>
0.372392

> <CNNaffinity_times_score>
2.0743203

> <protein>
2v3e

$$$$
22410391


 30 31  0  0  0  0  0  0  0  0999 V2000
   34.9007   30.6329   -2.4527 C   0  0  0  0  0  0  0  0  0  0  0  0
   35.2995   29.7050   -3.4244 C   0  0  0  0  0  0  0  0  0  0  0  0
   34.8761   29.8365   -4.7479 C   0  0  0  0  0  0  0  0  0  0  0  0
   34.0547   30.9053   -5.1216 C   0  0  0  0  0  0  0  0  0  0  0  0
   33.6138   31.8107   -4.1500 C   0  0  0  0  0  0  0  0  0  0  0  0
   34.0072   31.6689   -2.8110 C   0  0  0  0  0  0  0  0  0  0  0  0
   33.5521   31.0889   -6.8012 S   0  0  0  0  0  0  0  0  0  0  0  0
   34.3319   30.1181   -7.6431 O   0  0  0  0  0  0  0  0  0  0  0  0
   32.0848   30.7804   -6.9240 O   0  0  0  0  0  0  0  0  0  0  0  0
   33.8528   32.7221   -7.3445 N   0  0  0  0  0  0  0  0  0  0  0  0
   32.9569   33.0401   -8.4645 C   0  0  0  0  0  0  0  0  0  0  0  0
   35.2512   32.8420   -7.7759 C   0  0  0  0  0  0  0  0  0  0  0  0
   35.4361   30.5176   -1.1254 N   0  0  0  0  0  0  0  0  0  0  0  0
   34.9895   29.9263   -0.4772 H   0  0  0  0  0  0  0  0  0  0  0  0
   36.5170   31.6759    0.7482 C   0  0  0  0  0  0  0  0  0  0  0  0
   36.6290   31.2574   -0.7126 C   0  0  0  0  0  0  0  0  0  0  0  0
   33.4513   32.5569   -1.8305 N   0  0  0  0  0  0  0  0  0  0  0  0
   32.5724   32.3506   -1.4379 H   0  0  0  0  0  0  0  0  0  0  0  0
   34.1607   33.7613   -1.4013 C   0  0  0  0  0  0  0  0  0  0  0  0
   34.9057   34.3572   -2.5561 C   0  0  0  0  0  0  0  0  0  0  0  0
   34.2926   35.1013   -3.3707 O   0  0  0  0  0  0  0  0  0  0  0  0
   36.3129   34.1076   -2.7053 N   0  0  0  0  0  0  0  0  0  0  0  0
   36.7624   33.5602   -2.0215 H   0  0  0  0  0  0  0  0  0  0  0  0
   37.1009   34.6114   -3.7956 C   0  0  0  0  0  0  0  0  0  0  0  0
   37.4841   35.9657   -3.8493 C   0  0  0  0  0  0  0  0  0  0  0  0
   38.2255   36.4458   -4.9332 C   0  0  0  0  0  0  0  0  0  0  0  0
   38.5864   35.5824   -5.9719 C   0  0  0  0  0  0  0  0  0  0  0  0
   38.1966   34.2400   -5.9344 C   0  0  0  0  0  0  0  0  0  0  0  0
   37.4470   33.7556   -4.8567 C   0  0  0  0  0  0  0  0  0  0  0  0
   37.0707   32.4490   -4.8376 F   0  0  0  0  0  0  0  0  0  0  0  0
 15 16  1  0  0  0
 16 13  1  0  0  0
 13  1  1  0  0  0
  1  2  2  0  0  0
  2  3  1  0  0  0
  3  4  2  0  0  0
  4  5  1  0  0  0
  5  6  2  0  0  0
  6 17  1  0  0  0
 17 19  1  0  0  0
 19 20  1  0  0  0
 20 21  2  0  0  0
 20 22  1  0  0  0
 22 24  1  0  0  0
 24 25  2  0  0  0
 25 26  1  0  0  0
 26 27  2  0  0  0
 27 28  1  0  0  0
 28 29  2  0  0  0
 29 30  1  0  0  0
  4  7  1  0  0  0
  7  8  2  0  0  0
  7  9  2  0  0  0
  7 10  1  0  0  0
 10 11  1  0  0  0
 10 12  1  0  0  0
  6  1  1  0  0  0
 29 24  1  0  0  0
 13 14  1  0  0  0
 17 18  1  0  0  0
 22 23  1  0  0  0
M  END
> <minimizedAffinity>
-7.14140

> <newdefault_CNNaffinity>
6.56366

> <newdefault_CNNscore>
0.671011

> <CNNaffinity_times_score>
4.404288

> <protein>
2v3e

$$$$
22410751


 31 32  0  0  0  0  0  0  0  0999 V2000
    4.5728   -8.1508   44.5601 C   0  0  0  0  0  0  0  0  0  0  0  0
    5.9444   -8.1292   44.2312 C   0  0  0  0  0  0  0  0  0  0  0  0
    6.7290   -7.0126   44.5091 C   0  0  0  0  0  0  0  0  0  0  0  0
    6.1829   -5.9105   45.1727 C   0  0  0  0  0  0  0  0  0  0  0  0
    4.8287   -5.9219   45.5164 C   0  0  0  0  0  0  0  0  0  0  0  0
    4.0109   -7.0187   45.2024 C   0  0  0  0  0  0  0  0  0  0  0  0
    7.1800   -4.4925   45.5285 S   0  0  0  0  0  0  0  0  0  0  0  0
    8.1397   -4.2600   44.3917 O   0  0  0  0  0  0  0  0  0  0  0  0
    7.9949   -4.7764   46.7621 O   0  0  0  0  0  0  0  0  0  0  0  0
    6.2316   -3.0374   45.7444 N   0  0  0  0  0  0  0  0  0  0  0  0
    6.9226   -1.8726   45.1697 C   0  0  0  0  0  0  0  0  0  0  0  0
    5.9536   -2.8158   47.1709 C   0  0  0  0  0  0  0  0  0  0  0  0
    3.7469   -9.2813   44.2048 N   0  0  0  0  0  0  0  0  0  0  0  0
    3.9666  -10.1531   44.6060 H   0  0  0  0  0  0  0  0  0  0  0  0
    2.9509   -8.4273   42.0310 C   0  0  0  0  0  0  0  0  0  0  0  0
    2.6044   -9.2206   43.2883 C   0  0  0  0  0  0  0  0  0  0  0  0
    2.6030   -6.9515   45.4915 N   0  0  0  0  0  0  0  0  0  0  0  0
    2.0879   -7.7883   45.5533 H   0  0  0  0  0  0  0  0  0  0  0  0
    1.9144   -5.6791   45.6962 C   0  0  0  0  0  0  0  0  0  0  0  0
    1.6176   -5.0242   44.3816 C   0  0  0  0  0  0  0  0  0  0  0  0
    0.9689   -5.6646   43.5135 O   0  0  0  0  0  0  0  0  0  0  0  0
    2.1458   -3.7181   44.0962 N   0  0  0  0  0  0  0  0  0  0  0  0
    2.6532   -3.2667   44.8089 H   0  0  0  0  0  0  0  0  0  0  0  0
    1.9887   -3.0199   42.8464 C   0  0  0  0  0  0  0  0  0  0  0  0
    0.8447   -2.2523   42.5558 C   0  0  0  0  0  0  0  0  0  0  0  0
    0.7176   -1.6159   41.3154 C   0  0  0  0  0  0  0  0  0  0  0  0
    1.7367   -1.7165   40.3650 C   0  0  0  0  0  0  0  0  0  0  0  0
    1.5866   -1.1369   39.1437 F   0  0  0  0  0  0  0  0  0  0  0  0
    2.8979   -2.4367   40.6645 C   0  0  0  0  0  0  0  0  0  0  0  0
    4.1966   -2.5500   39.4873 Cl  0  0  0  0  0  0  0  0  0  0  0  0
    3.0245   -3.0782   41.9022 C   0  0  0  0  0  0  0  0  0  0  0  0
 15 16  1  0  0  0
 16 13  1  0  0  0
 13  1  1  0  0  0
  1  2  2  0  0  0
  2  3  1  0  0  0
  3  4  2  0  0  0
  4  5  1  0  0  0
  5  6  2  0  0  0
  6 17  1  0  0  0
 17 19  1  0  0  0
 19 20  1  0  0  0
 20 21  2  0  0  0
 20 22  1  0  0  0
 22 24  1  0  0  0
 24 25  2  0  0  0
 25 26  1  0  0  0
 26 27  2  0  0  0
 27 28  1  0  0  0
 27 29  1  0  0  0
 29 30  1  0  0  0
 29 31  2  0  0  0
  4  7  1  0  0  0
  7  8  2  0  0  0
  7  9  2  0  0  0
  7 10  1  0  0  0
 10 11  1  0  0  0
 10 12  1  0  0  0
  6  1  1  0  0  0
 31 24  1  0  0  0
 13 14  1  0  0  0
 17 18  1  0  0  0
 22 23  1  0  0  0
M  END
> <minimizedAffinity>
-5.22475

> <newdefault_CNNaffinity>
5.26207

> <newdefault_CNNscore>
0.256879

> <CNNaffinity_times_score>
1.3517153

> <protein>
3rik

$$$$
22413565


 27 29  0  0  0  0  0  0  0  0999 V2000
    5.9467   -5.6573   43.7026 C   0  0  0  0  0  0  0  0  0  0  0  0
    5.4063   -4.7159   42.8846 N   0  0  0  0  0  0  0  0  0  0  0  0
    4.0791   -4.6936   42.5856 C   0  0  0  0  0  0  0  0  0  0  0  0
    3.2606   -5.6419   43.1145 N   0  0  0  0  0  0  0  0  0  0  0  0
    3.7410   -6.6208   43.9227 C   0  0  0  0  0  0  0  0  0  0  0  0
    2.8713   -7.5925   44.4311 C   0  0  0  0  0  0  0  0  0  0  0  0
    3.3658   -8.6231   45.2341 C   0  0  0  0  0  0  0  0  0  0  0  0
    4.7308   -8.6929   45.5235 C   0  0  0  0  0  0  0  0  0  0  0  0
    5.6076   -7.7255   45.0227 C   0  0  0  0  0  0  0  0  0  0  0  0
    5.1180   -6.6672   44.2340 C   0  0  0  0  0  0  0  0  0  0  0  0
    3.5294   -3.6413   41.6954 C   0  0  0  0  0  0  0  0  0  0  0  0
    4.3420   -3.0292   40.7208 C   0  0  0  0  0  0  0  0  0  0  0  0
    3.8209   -2.0379   39.8836 C   0  0  0  0  0  0  0  0  0  0  0  0
    2.4867   -1.6454   40.0074 C   0  0  0  0  0  0  0  0  0  0  0  0
    1.6701   -2.2435   40.9690 C   0  0  0  0  0  0  0  0  0  0  0  0
    2.1850   -3.2355   41.8091 C   0  0  0  0  0  0  0  0  0  0  0  0
    7.3492   -5.5904   43.9909 N   0  0  0  0  0  0  0  0  0  0  0  0
    7.9489   -6.2864   43.6370 H   0  0  0  0  0  0  0  0  0  0  0  0
    7.9058   -4.5077   44.8006 C   0  0  0  0  0  0  0  0  0  0  0  0
    7.4678   -4.6552   46.2537 C   0  0  0  0  0  0  0  0  0  0  0  0
    6.9049   -3.4280   46.7047 O   0  0  0  0  0  0  0  0  0  0  0  0
    5.6587   -2.9614   46.2700 C   0  0  0  0  0  0  0  0  0  0  0  0
    4.6516   -3.7222   46.3116 O   0  0  0  0  0  0  0  0  0  0  0  0
    4.5016   -1.5402   44.5814 C   0  0  0  0  0  0  0  0  0  0  0  0
    5.5081   -1.5459   45.7472 C   0  0  0  0  0  0  0  0  0  0  0  0
    6.8759   -1.0400   45.2522 C   0  0  0  0  0  0  0  0  0  0  0  0
    4.9962   -0.6056   46.8578 C   0  0  0  0  0  0  0  0  0  0  0  0
 24 25  1  0  0  0
 25 26  1  0  0  0
 25 27  1  0  0  0
 25 22  1  0  0  0
 22 23  2  0  0  0
 22 21  1  0  0  0
 21 20  1  0  0  0
 20 19  1  0  0  0
 19 17  1  0  0  0
 17  1  1  0  0  0
  1  2  2  0  0  0
  2  3  1  0  0  0
  3  4  2  0  0  0
  4  5  1  0  0  0
  5  6  2  0  0  0
  6  7  1  0  0  0
  7  8  2  0  0  0
  8  9  1  0  0  0
  9 10  2  0  0  0
  3 11  1  0  0  0
 11 12  2  0  0  0
 12 13  1  0  0  0
 13 14  2  0  0  0
 14 15  1  0  0  0
 15 16  2  0  0  0
 10  1  1  0  0  0
 10  5  1  0  0  0
 16 11  1  0  0  0
 17 18  1  0  0  0
M  END
> <minimizedAffinity>
-6.56567

> <newdefault_CNNaffinity>
5.63339

> <newdefault_CNNscore>
0.613878

> <CNNaffinity_times_score>
3.4582143

> <protein>
3rik

$$$$
22413574


 17 18  0  0  0  0  0  0  0  0999 V2000
    3.2286   -3.7125   41.6358 C   0  0  0  0  0  0  0  0  0  0  0  0
    2.4612   -2.6577   41.9243 C   0  0  0  0  0  0  0  0  0  0  0  0
    4.0751   -5.6814   43.6571 N   0  0  0  0  0  0  0  0  0  0  0  0
    4.7396   -6.9648   43.8361 C   0  0  0  0  0  0  0  0  0  0  0  0
    6.2263   -6.6926   44.0878 C   0  0  0  0  0  0  0  0  0  0  0  0
    6.6875   -5.0716   43.3746 S   0  0  0  0  0  0  0  0  0  0  0  0
    4.9667   -4.7351   43.0759 C   0  0  0  0  0  0  0  0  0  0  0  0
    4.5982   -3.8195   42.1709 C   0  0  0  0  0  0  0  0  0  0  0  0
    3.5382   -4.4298   45.7165 C   0  0  0  0  0  0  0  0  0  0  0  0
    2.9933   -5.2641   44.5594 C   0  0  0  0  0  0  0  0  0  0  0  0
    1.0710   -2.5421   41.4406 C   0  0  0  0  0  0  0  0  0  0  0  0
    0.6996   -1.8723   40.3859 N   0  0  0  0  0  0  0  0  0  0  0  0
   -0.6806   -2.1281   39.9835 C   0  0  0  0  0  0  0  0  0  0  0  0
   -1.1547   -3.3736   40.7243 C   0  0  0  0  0  0  0  0  0  0  0  0
   -0.2116   -3.4574   42.2708 S   0  0  0  0  0  0  0  0  0  0  0  0
    1.5645   -0.9629   39.6106 C   0  0  0  0  0  0  0  0  0  0  0  0
    1.2394    0.5021   39.8979 C   0  0  0  0  0  0  0  0  0  0  0  0
  9 10  1  0  0  0
 10  3  1  0  0  0
  3  4  1  0  0  0
  4  5  1  0  0  0
  5  6  1  0  0  0
  6  7  1  0  0  0
  7  8  2  0  0  0
  8  1  1  0  0  0
  1  2  2  0  0  0
  2 11  1  0  0  0
 11 12  2  0  0  0
 12 16  1  0  0  0
 16 17  1  0  0  0
 12 13  1  0  0  0
 13 14  1  0  0  0
 14 15  1  0  0  0
  7  3  1  0  0  0
 15 11  1  0  0  0
M  CHG 1  12   1
M  END
> <minimizedAffinity>
-3.86361

> <newdefault_CNNaffinity>
4.24712

> <newdefault_CNNscore>
0.433125

> <CNNaffinity_times_score>
1.8395338

> <protein>
3rik

$$$$
24779782


 46 51  0  0  0  0  0  0  0  0999 V2000
   36.2964   31.7756   -9.5517 C   0  0  0  0  0  0  0  0  0  0  0  0
   36.3413   30.2417   -9.7375 C   0  0  0  0  0  0  0  0  0  0  0  0
   37.4524   29.6445   -8.8623 C   0  0  0  0  0  0  0  0  0  0  0  0
   37.2378   30.0325   -7.4266 C   0  0  0  0  0  0  0  0  0  0  0  0
   36.7946   31.2663   -7.1303 C   0  0  0  0  0  0  0  0  0  0  0  0
   36.4399   32.1397   -8.1717 O   0  0  0  0  0  0  0  0  0  0  0  0
   36.7203   31.7236   -5.7126 C   0  0  0  0  0  0  0  0  0  0  0  0
   37.7066   31.4849   -4.9626 O   0  0  0  0  0  0  0  0  0  0  0  0
   35.5885   32.4585   -5.1689 N   0  0  0  0  0  0  0  0  0  0  0  0
   35.8584   33.2904   -3.9854 C   0  0  0  0  0  0  0  0  0  0  0  0
   34.6346   34.0594   -3.4889 C   0  0  0  0  0  0  0  0  0  0  0  0
   33.4132   33.2356   -3.5193 N   0  0  0  0  0  0  0  0  0  0  0  0
   33.0781   32.9226   -4.9185 C   0  0  0  0  0  0  0  0  0  0  0  0
   34.2287   32.2730   -5.7237 C   0  0  0  0  0  0  0  0  0  0  0  0
   32.6666   33.7892   -3.0992 H   0  0  0  0  0  0  0  0  0  0  0  0
   33.4703   32.0131   -2.6706 C   0  0  0  0  0  0  0  0  0  0  0  0
   34.2060   32.2583   -1.3677 C   0  0  0  0  0  0  0  0  0  0  0  0
   33.7661   33.2640   -0.4682 C   0  0  0  0  0  0  0  0  0  0  0  0
   34.3977   33.4290    0.7751 C   0  0  0  0  0  0  0  0  0  0  0  0
   35.4578   32.5854    1.0953 C   0  0  0  0  0  0  0  0  0  0  0  0
   36.2097   32.5410    2.2504 O   0  0  0  0  0  0  0  0  0  0  0  0
   37.1842   31.4941    2.1054 C   0  0  0  0  0  0  0  0  0  0  0  0
   36.9547   30.9516    0.8006 O   0  0  0  0  0  0  0  0  0  0  0  0
   35.8964   31.6368    0.2337 C   0  0  0  0  0  0  0  0  0  0  0  0
   35.3088   31.4412   -1.0142 C   0  0  0  0  0  0  0  0  0  0  0  0
   37.5578   28.1430   -9.0248 C   0  0  0  0  0  0  0  0  0  0  0  0
   37.4712   27.2820   -7.9158 C   0  0  0  0  0  0  0  0  0  0  0  0
   37.5775   25.8980   -8.0825 C   0  0  0  0  0  0  0  0  0  0  0  0
   37.7720   25.3452   -9.3581 C   0  0  0  0  0  0  0  0  0  0  0  0
   37.8783   26.2074  -10.4607 C   0  0  0  0  0  0  0  0  0  0  0  0
   37.7661   27.5901  -10.2957 C   0  0  0  0  0  0  0  0  0  0  0  0
   37.9415   23.8607   -9.5486 C   0  0  0  0  0  0  0  0  0  0  0  0
   39.2344   23.5055   -9.2111 F   0  0  0  0  0  0  0  0  0  0  0  0
   37.7103   23.5239  -10.8704 F   0  0  0  0  0  0  0  0  0  0  0  0
   37.0577   23.1497   -8.7580 F   0  0  0  0  0  0  0  0  0  0  0  0
   35.0711   32.3264  -10.0148 O   0  0  0  0  0  0  0  0  0  0  0  0
   33.9392   31.5544   -9.6343 C   0  0  0  0  0  0  0  0  0  0  0  0
   30.7852   31.8222  -12.5725 C   0  0  0  0  0  0  0  0  0  0  0  0
   30.9221   32.8124  -11.5920 C   0  0  0  0  0  0  0  0  0  0  0  0
   31.9262   32.7164  -10.6254 C   0  0  0  0  0  0  0  0  0  0  0  0
   32.8162   31.6311  -10.6364 C   0  0  0  0  0  0  0  0  0  0  0  0
   32.6898   30.6470  -11.6265 C   0  0  0  0  0  0  0  0  0  0  0  0
   31.6800   30.7397  -12.5899 C   0  0  0  0  0  0  0  0  0  0  0  0
   28.4358   31.8659  -12.9835 O   0  0  0  0  0  0  0  0  0  0  0  0
   29.6912   31.9297  -13.5977 C   0  0  0  0  0  0  0  0  0  0  0  0
   27.7421   31.9366  -13.6578 H   0  0  0  0  0  0  0  0  0  0  0  0
 44 45  1  0  0  0
 45 38  1  0  0  0
 38 39  2  0  0  0
 39 40  1  0  0  0
 40 41  2  0  0  0
 41 37  1  0  0  0
 37 36  1  0  0  0
  1 36  1  0  0  0
  1  2  1  0  0  0
  2  3  1  0  0  0
  3  4  1  0  0  0
  4  5  2  0  0  0
  5  6  1  0  0  0
  5  7  1  0  0  0
  7  8  2  0  0  0
  7  9  1  0  0  0
  9 10  1  0  0  0
 10 11  1  0  0  0
 11 12  1  0  0  0
 12 16  1  0  0  0
 16 17  1  0  0  0
 17 18  2  0  0  0
 18 19  1  0  0  0
 19 20  2  0  0  0
 20 21  1  0  0  0
 21 22  1  0  0  0
 22 23  1  0  0  0
 23 24  1  0  0  0
 24 25  2  0  0  0
 12 13  1  0  0  0
 13 14  1  0  0  0
  3 26  1  0  0  0
 26 27  2  0  0  0
 27 28  1  0  0  0
 28 29  2  0  0  0
 29 30  1  0  0  0
 30 31  2  0  0  0
 29 32  1  0  0  0
 32 33  1  0  0  0
 32 34  1  0  0  0
 32 35  1  0  0  0
 41 42  1  0  0  0
 42 43  2  0  0  0
 43 38  1  0  0  0
  6  1  1  0  0  0
 14  9  1  0  0  0
 25 17  1  0  0  0
 24 20  1  0  0  0
 31 26  1  0  0  0
 44 46  1  0  0  0
 12 15  1  0  0  0
M  CHG 1  12   1
M  END
> <minimizedAffinity>
-9.19778

> <newdefault_CNNaffinity>
6.38816

> <newdefault_CNNscore>
0.1477

> <CNNaffinity_times_score>
0.9435313

> <protein>
2v3d

$$$$
24782825


 25 27  0  0  0  0  0  0  0  0999 V2000
    6.0662   -5.5116   43.5087 C   0  0  0  0  0  0  0  0  0  0  0  0
    5.4376   -4.5552   42.7758 N   0  0  0  0  0  0  0  0  0  0  0  0
    4.1340   -4.6701   42.4039 C   0  0  0  0  0  0  0  0  0  0  0  0
    3.4315   -5.7757   42.7690 N   0  0  0  0  0  0  0  0  0  0  0  0
    4.0067   -6.7762   43.4834 C   0  0  0  0  0  0  0  0  0  0  0  0
    3.2581   -7.9094   43.8215 C   0  0  0  0  0  0  0  0  0  0  0  0
    3.8553   -8.9589   44.5238 C   0  0  0  0  0  0  0  0  0  0  0  0
    5.2039   -8.8855   44.8815 C   0  0  0  0  0  0  0  0  0  0  0  0
    5.9601   -7.7565   44.5512 C   0  0  0  0  0  0  0  0  0  0  0  0
    5.3627   -6.6802   43.8674 C   0  0  0  0  0  0  0  0  0  0  0  0
    3.4834   -3.5962   41.6130 C   0  0  0  0  0  0  0  0  0  0  0  0
    4.1812   -2.9446   40.5770 C   0  0  0  0  0  0  0  0  0  0  0  0
    3.5649   -1.9333   39.8335 C   0  0  0  0  0  0  0  0  0  0  0  0
    2.2488   -1.5602   40.1129 C   0  0  0  0  0  0  0  0  0  0  0  0
    1.5454   -2.1975   41.1367 C   0  0  0  0  0  0  0  0  0  0  0  0
    2.1559   -3.2096   41.8840 C   0  0  0  0  0  0  0  0  0  0  0  0
    7.4316   -5.2965   43.8869 N   0  0  0  0  0  0  0  0  0  0  0  0
    8.1266   -5.8935   43.5267 H   0  0  0  0  0  0  0  0  0  0  0  0
    7.8234   -4.2168   44.7920 C   0  0  0  0  0  0  0  0  0  0  0  0
    6.8757   -4.1661   45.9903 C   0  0  0  0  0  0  0  0  0  0  0  0
    6.5910   -2.8152   46.3479 O   0  0  0  0  0  0  0  0  0  0  0  0
    6.5655   -1.7632   45.4252 C   0  0  0  0  0  0  0  0  0  0  0  0
    7.5109   -0.9294   45.3711 O   0  0  0  0  0  0  0  0  0  0  0  0
    4.0850   -1.8733   45.2280 C   0  0  0  0  0  0  0  0  0  0  0  0
    5.4002   -1.6272   44.4962 C   0  0  0  0  0  0  0  0  0  0  0  0
 24 25  1  0  0  0
 25 22  1  0  0  0
 22 23  2  0  0  0
 22 21  1  0  0  0
 21 20  1  0  0  0
 20 19  1  0  0  0
 19 17  1  0  0  0
 17  1  1  0  0  0
  1  2  2  0  0  0
  2  3  1  0  0  0
  3  4  2  0  0  0
  4  5  1  0  0  0
  5  6  2  0  0  0
  6  7  1  0  0  0
  7  8  2  0  0  0
  8  9  1  0  0  0
  9 10  2  0  0  0
  3 11  1  0  0  0
 11 12  2  0  0  0
 12 13  1  0  0  0
 13 14  2  0  0  0
 14 15  1  0  0  0
 15 16  2  0  0  0
 10  1  1  0  0  0
 10  5  1  0  0  0
 16 11  1  0  0  0
 17 18  1  0  0  0
M  END
> <minimizedAffinity>
-6.37579

> <newdefault_CNNaffinity>
5.12927

> <newdefault_CNNscore>
0.275505

> <CNNaffinity_times_score>
1.4131396

> <protein>
3rik

$$$$
24782921


 35 37  0  0  0  0  0  0  0  0999 V2000
    4.6473   -7.9795   45.1891 N   0  0  0  0  0  0  0  0  0  0  0  0
    4.8967  -12.0358   43.8436 C   0  0  0  0  0  0  0  0  0  0  0  0
    3.9953  -11.1467   43.2530 C   0  0  0  0  0  0  0  0  0  0  0  0
    3.9062   -9.8234   43.6926 C   0  0  0  0  0  0  0  0  0  0  0  0
    4.7252   -9.3562   44.7391 C   0  0  0  0  0  0  0  0  0  0  0  0
    5.6220  -10.2612   45.3403 C   0  0  0  0  0  0  0  0  0  0  0  0
    5.7109  -11.5836   44.8963 C   0  0  0  0  0  0  0  0  0  0  0  0
    4.9542  -13.3508   43.3567 O   0  0  0  0  0  0  0  0  0  0  0  0
    5.4146  -15.5622   44.1847 C   0  0  0  0  0  0  0  0  0  0  0  0
    4.3666  -14.4758   44.0052 C   0  0  0  0  0  0  0  0  0  0  0  0
    5.2293   -6.6765   44.1836 S   0  0  0  0  0  0  0  0  0  0  0  0
    4.1926   -6.3513   43.1446 O   0  0  0  0  0  0  0  0  0  0  0  0
    6.4725   -7.1485   43.4818 O   0  0  0  0  0  0  0  0  0  0  0  0
    5.5804   -5.2034   45.1190 C   0  0  0  0  0  0  0  0  0  0  0  0
    6.8084   -5.0442   45.8042 C   0  0  0  0  0  0  0  0  0  0  0  0
    7.8769   -6.0974   45.7969 C   0  0  0  0  0  0  0  0  0  0  0  0
    7.0354   -3.9111   46.5200 N   0  0  0  0  0  0  0  0  0  0  0  0
    6.1207   -2.9143   46.5792 C   0  0  0  0  0  0  0  0  0  0  0  0
    6.3864   -1.7717   47.3200 O   0  0  0  0  0  0  0  0  0  0  0  0
    4.9481   -3.0310   45.9124 N   0  0  0  0  0  0  0  0  0  0  0  0
    4.6589   -4.1391   45.1843 C   0  0  0  0  0  0  0  0  0  0  0  0
    3.4457   -4.1921   44.5123 O   0  0  0  0  0  0  0  0  0  0  0  0
    4.0061   -7.6267   46.4629 C   0  0  0  0  0  0  0  0  0  0  0  0
    2.5104   -7.8130   46.4040 C   0  0  0  0  0  0  0  0  0  0  0  0
    1.8336   -7.2177   45.5226 O   0  0  0  0  0  0  0  0  0  0  0  0
    1.8381   -8.6650   47.3401 N   0  0  0  0  0  0  0  0  0  0  0  0
    0.8573   -8.7383   47.2956 H   0  0  0  0  0  0  0  0  0  0  0  0
    2.5421   -9.4140   48.3383 C   0  0  0  0  0  0  0  0  0  0  0  0
    2.9001   -8.8041   49.5606 C   0  0  0  0  0  0  0  0  0  0  0  0
    2.5429   -7.3715   49.8488 C   0  0  0  0  0  0  0  0  0  0  0  0
    3.5494   -9.5638   50.5454 C   0  0  0  0  0  0  0  0  0  0  0  0
    3.8757  -10.8996   50.3071 C   0  0  0  0  0  0  0  0  0  0  0  0
    3.5496  -11.4959   49.0893 C   0  0  0  0  0  0  0  0  0  0  0  0
    2.8805  -10.7631   48.0968 C   0  0  0  0  0  0  0  0  0  0  0  0
    2.5331  -11.4164   46.7879 C   0  0  0  0  0  0  0  0  0  0  0  0
  9 10  1  0  0  0
 10  8  1  0  0  0
  8  2  1  0  0  0
  2  3  2  0  0  0
  3  4  1  0  0  0
  4  5  2  0  0  0
  5  6  1  0  0  0
  6  7  2  0  0  0
  5  1  1  0  0  0
  1 23  1  0  0  0
 23 24  1  0  0  0
 24 25  2  0  0  0
 24 26  1  0  0  0
 26 28  1  0  0  0
 28 29  2  0  0  0
 29 30  1  0  0  0
 29 31  1  0  0  0
 31 32  2  0  0  0
 32 33  1  0  0  0
 33 34  2  0  0  0
 34 35  1  0  0  0
  1 11  1  0  0  0
 11 12  2  0  0  0
 11 13  2  0  0  0
 11 14  1  0  0  0
 14 15  2  0  0  0
 15 16  1  0  0  0
 15 17  1  0  0  0
 17 18  2  0  0  0
 18 19  1  0  0  0
 18 20  1  0  0  0
 20 21  2  0  0  0
 21 22  1  0  0  0
  7  2  1  0  0  0
 34 28  1  0  0  0
 21 14  1  0  0  0
 26 27  1  0  0  0
M  CHG 1  19  -1
M  CHG 1  22  -1
M  END
> <minimizedAffinity>
-5.87522

> <newdefault_CNNaffinity>
5.81307

> <newdefault_CNNscore>
0.2606

> <CNNaffinity_times_score>
1.514886

> <protein>
3rik

$$$$
24783483


 37 41  0  0  0  0  0  0  0  0999 V2000
  -33.4582  -14.6978    5.5211 N   0  0  0  0  0  0  0  0  0  0  0  0
  -33.9859  -13.6170    6.3375 C   0  0  0  0  0  0  0  0  0  0  0  0
  -34.9017  -12.8796    5.8792 O   0  0  0  0  0  0  0  0  0  0  0  0
  -33.4627  -13.3121    7.6884 C   0  0  0  0  0  0  0  0  0  0  0  0
  -33.1219  -11.9894    8.0162 C   0  0  0  0  0  0  0  0  0  0  0  0
  -32.5849  -11.6893    9.2696 C   0  0  0  0  0  0  0  0  0  0  0  0
  -32.4032  -12.7021   10.2146 C   0  0  0  0  0  0  0  0  0  0  0  0
  -32.7525  -14.0202    9.9040 C   0  0  0  0  0  0  0  0  0  0  0  0
  -33.3061  -14.3235    8.6557 C   0  0  0  0  0  0  0  0  0  0  0  0
  -33.8229  -15.9991    8.2954 S   0  0  0  0  0  0  0  0  0  0  0  0
  -32.4194  -16.2068    7.2113 C   0  0  0  0  0  0  0  0  0  0  0  0
  -31.3644  -17.0269    7.6181 C   0  0  0  0  0  0  0  0  0  0  0  0
  -30.2668  -17.2289    6.7812 C   0  0  0  0  0  0  0  0  0  0  0  0
  -30.2064  -16.6006    5.5279 C   0  0  0  0  0  0  0  0  0  0  0  0
  -31.2570  -15.7553    5.1327 C   0  0  0  0  0  0  0  0  0  0  0  0
  -32.3725  -15.5495    5.9644 C   0  0  0  0  0  0  0  0  0  0  0  0
  -29.0427  -16.8038    4.6383 C   0  0  0  0  0  0  0  0  0  0  0  0
  -28.8967  -16.0582    3.6293 O   0  0  0  0  0  0  0  0  0  0  0  0
  -28.0935  -17.8486    4.9005 N   0  0  0  0  0  0  0  0  0  0  0  0
  -28.3125  -18.5215    5.5850 H   0  0  0  0  0  0  0  0  0  0  0  0
  -26.8160  -17.9589    4.1969 C   0  0  0  0  0  0  0  0  0  0  0  0
  -26.2157  -19.3739    4.3239 C   0  0  0  0  0  0  0  0  0  0  0  0
  -24.7608  -19.4048    4.6419 N   0  0  0  0  0  0  0  0  0  0  0  0
  -24.4592  -19.6889    6.0657 C   0  0  0  0  0  0  0  0  0  0  0  0
  -24.6901  -21.1678    6.4128 C   0  0  0  0  0  0  0  0  0  0  0  0
  -23.9022  -22.0018    5.5890 O   0  0  0  0  0  0  0  0  0  0  0  0
  -24.2772  -21.8304    4.2369 C   0  0  0  0  0  0  0  0  0  0  0  0
  -24.0493  -20.3774    3.7781 C   0  0  0  0  0  0  0  0  0  0  0  0
  -24.4254  -18.4600    4.4543 H   0  0  0  0  0  0  0  0  0  0  0  0
  -34.0539  -14.9472    4.1955 C   0  0  0  0  0  0  0  0  0  0  0  0
  -36.7364  -15.1341    5.1481 F   0  0  0  0  0  0  0  0  0  0  0  0
  -36.1663  -16.2596    4.6484 C   0  0  0  0  0  0  0  0  0  0  0  0
  -36.9063  -17.4471    4.6413 C   0  0  0  0  0  0  0  0  0  0  0  0
  -36.3399  -18.6246    4.1494 C   0  0  0  0  0  0  0  0  0  0  0  0
  -35.0297  -18.6192    3.6649 C   0  0  0  0  0  0  0  0  0  0  0  0
  -34.2845  -17.4362    3.6683 C   0  0  0  0  0  0  0  0  0  0  0  0
  -34.8505  -16.2365    4.1438 C   0  0  0  0  0  0  0  0  0  0  0  0
 31 32  1  0  0  0
 32 33  2  0  0  0
 33 34  1  0  0  0
 34 35  2  0  0  0
 35 36  1  0  0  0
 36 37  2  0  0  0
 37 30  1  0  0  0
 30  1  1  0  0  0
  1  2  1  0  0  0
  2  3  2  0  0  0
  2  4  1  0  0  0
  4  5  2  0  0  0
  5  6  1  0  0  0
  6  7  2  0  0  0
  7  8  1  0  0  0
  8  9  2  0  0  0
  9 10  1  0  0  0
 10 11  1  0  0  0
 11 12  2  0  0  0
 12 13  1  0  0  0
 13 14  2  0  0  0
 14 15  1  0  0  0
 15 16  2  0  0  0
 14 17  1  0  0  0
 17 18  2  0  0  0
 17 19  1  0  0  0
 19 21  1  0  0  0
 21 22  1  0  0  0
 22 23  1  0  0  0
 23 24  1  0  0  0
 24 25  1  0  0  0
 25 26  1  0  0  0
 26 27  1  0  0  0
 27 28  1  0  0  0
 37 32  1  0  0  0
 16  1  1  0  0  0
  9  4  1  0  0  0
 16 11  1  0  0  0
 28 23  1  0  0  0
 19 20  1  0  0  0
 23 29  1  0  0  0
M  CHG 1  23   1
M  END
> <minimizedAffinity>
-8.74598

> <newdefault_CNNaffinity>
6.38374

> <newdefault_CNNscore>
0.440407

> <CNNaffinity_times_score>
2.8114438

> <protein>
2xwe

$$$$
24784237


 34 36  0  0  0  0  0  0  0  0999 V2000
    5.5651   -0.0931   46.7372 C   0  0  0  0  0  0  0  0  0  0  0  0
    3.6293   -1.5051   45.8652 N   0  0  0  0  0  0  0  0  0  0  0  0
    4.0970   -0.3078   46.5149 C   0  0  0  0  0  0  0  0  0  0  0  0
    3.2854    0.5655   46.9228 O   0  0  0  0  0  0  0  0  0  0  0  0
    4.2854   -2.2216   45.7062 H   0  0  0  0  0  0  0  0  0  0  0  0
    1.3490   -1.8935   46.6743 C   0  0  0  0  0  0  0  0  0  0  0  0
    2.2400   -1.7410   45.4188 C   0  0  0  0  0  0  0  0  0  0  0  0
    1.7347   -0.5227   44.6135 C   0  0  0  0  0  0  0  0  0  0  0  0
    2.1955   -3.0470   44.5699 C   0  0  0  0  0  0  0  0  0  0  0  0
    2.7837   -2.9103   43.1822 C   0  0  0  0  0  0  0  0  0  0  0  0
    1.9866   -2.4636   42.1131 C   0  0  0  0  0  0  0  0  0  0  0  0
    2.5245   -2.3567   40.8268 C   0  0  0  0  0  0  0  0  0  0  0  0
    3.8568   -2.7102   40.5902 C   0  0  0  0  0  0  0  0  0  0  0  0
    4.3787   -2.6015   39.3026 O   0  0  0  0  0  0  0  0  0  0  0  0
    4.6524   -3.1731   41.6482 C   0  0  0  0  0  0  0  0  0  0  0  0
    4.1180   -3.2772   42.9358 C   0  0  0  0  0  0  0  0  0  0  0  0
    3.8384   -2.2910   38.6028 H   0  0  0  0  0  0  0  0  0  0  0  0
    6.2025   -1.3556   47.2525 C   0  0  0  0  0  0  0  0  0  0  0  0
    6.3908   -1.4852   48.4919 O   0  0  0  0  0  0  0  0  0  0  0  0
    6.5850   -2.4223   46.3781 N   0  0  0  0  0  0  0  0  0  0  0  0
    6.1735   -3.6126   46.5487 N   0  0  0  0  0  0  0  0  0  0  0  0
    6.5542   -4.6936   45.6899 C   0  0  0  0  0  0  0  0  0  0  0  0
    7.7887   -4.9579   45.0861 C   0  0  0  0  0  0  0  0  0  0  0  0
    8.9588   -4.2076   45.1960 O   0  0  0  0  0  0  0  0  0  0  0  0
    7.7181   -6.0871   44.3431 N   0  0  0  0  0  0  0  0  0  0  0  0
    6.4536   -6.5343   44.4703 C   0  0  0  0  0  0  0  0  0  0  0  0
    5.8908   -7.6628   43.8727 C   0  0  0  0  0  0  0  0  0  0  0  0
    4.5330   -7.9379   44.1306 C   0  0  0  0  0  0  0  0  0  0  0  0
    3.7040   -9.4592   43.3311 Br  0  0  0  0  0  0  0  0  0  0  0  0
    3.7784   -7.0874   44.9717 C   0  0  0  0  0  0  0  0  0  0  0  0
    4.3727   -5.9560   45.5602 C   0  0  0  0  0  0  0  0  0  0  0  0
    5.7175   -5.7111   45.2856 C   0  0  0  0  0  0  0  0  0  0  0  0
    8.9699   -3.4308   45.7199 H   0  0  0  0  0  0  0  0  0  0  0  0
    8.4423   -6.4975   43.8175 H   0  0  0  0  0  0  0  0  0  0  0  0
  6  7  1  0  0  0
  7  8  1  0  0  0
  7  9  1  0  0  0
  9 10  1  0  0  0
 10 11  2  0  0  0
 11 12  1  0  0  0
 12 13  2  0  0  0
 13 14  1  0  0  0
 13 15  1  0  0  0
 15 16  2  0  0  0
  7  2  1  0  0  0
  2  3  1  0  0  0
  3  4  2  0  0  0
  3  1  1  0  0  0
  1 18  1  0  0  0
 18 19  2  0  0  0
 18 20  1  0  0  0
 20 21  2  0  0  0
 21 22  1  0  0  0
 22 23  2  0  0  0
 23 24  1  0  0  0
 23 25  1  0  0  0
 25 26  1  0  0  0
 26 27  2  0  0  0
 27 28  1  0  0  0
 28 29  1  0  0  0
 28 30  2  0  0  0
 30 31  1  0  0  0
 31 32  2  0  0  0
 16 10  1  0  0  0
 32 22  1  0  0  0
 32 26  1  0  0  0
 14 17  1  0  0  0
  2  5  1  0  0  0
 24 33  1  0  0  0
 25 34  1  0  0  0
M  END
> <minimizedAffinity>
-5.73692

> <newdefault_CNNaffinity>
5.95731

> <newdefault_CNNscore>
0.387071

> <CNNaffinity_times_score>
2.305902

> <protein>
3rik

$$$$
24784458


 18 20  0  0  0  0  0  0  0  0999 V2000
  -37.7731  -17.4821   -2.1208 C   0  0  0  0  0  0  0  0  0  0  0  0
  -36.6323  -16.9361   -1.3125 C   0  0  0  0  0  0  0  0  0  0  0  0
  -35.7398  -16.0144   -1.8754 C   0  0  0  0  0  0  0  0  0  0  0  0
  -34.6744  -15.5048   -1.1182 C   0  0  0  0  0  0  0  0  0  0  0  0
  -34.5139  -15.9340    0.2199 C   0  0  0  0  0  0  0  0  0  0  0  0
  -33.4598  -15.4573    1.0491 C   0  0  0  0  0  0  0  0  0  0  0  0
  -33.3285  -15.9032    2.3744 C   0  0  0  0  0  0  0  0  0  0  0  0
  -34.2551  -16.8260    2.8516 C   0  0  0  0  0  0  0  0  0  0  0  0
  -34.3766  -17.4285    4.0837 C   0  0  0  0  0  0  0  0  0  0  0  0
  -33.5377  -17.1807    5.2993 C   0  0  0  0  0  0  0  0  0  0  0  0
  -35.5134  -18.2271    3.9860 C   0  0  0  0  0  0  0  0  0  0  0  0
  -36.0653  -18.1567    2.7507 N   0  0  0  0  0  0  0  0  0  0  0  0
  -35.2813  -17.2944    2.0731 C   0  0  0  0  0  0  0  0  0  0  0  0
  -35.4454  -16.8730    0.7477 C   0  0  0  0  0  0  0  0  0  0  0  0
  -36.4676  -17.3424   -0.0231 N   0  0  0  0  0  0  0  0  0  0  0  0
  -36.0778  -19.0721    5.0819 C   0  0  0  0  0  0  0  0  0  0  0  0
  -33.7330  -14.5139   -1.7542 C   0  0  0  0  0  0  0  0  0  0  0  0
  -37.1014  -17.9902    0.3615 H   0  0  0  0  0  0  0  0  0  0  0  0
  1  2  1  0  0  0
  2  3  2  0  0  0
  3  4  1  0  0  0
  4  5  2  0  0  0
  5  6  1  0  0  0
  6  7  2  0  0  0
  7  8  1  0  0  0
  8  9  2  0  0  0
  9 10  1  0  0  0
  9 11  1  0  0  0
 11 12  2  0  0  0
 12 13  1  0  0  0
 13 14  2  0  0  0
 14 15  1  0  0  0
 11 16  1  0  0  0
  4 17  1  0  0  0
 15  2  1  0  0  0
 14  5  1  0  0  0
 13  8  1  0  0  0
 15 18  1  0  0  0
M  END
> <minimizedAffinity>
-8.51574

> <newdefault_CNNaffinity>
5.72287

> <newdefault_CNNscore>
0.798292

> <CNNaffinity_times_score>
4.568521

> <protein>
2xwd

$$$$
24784616


 30 33  0  0  0  0  0  0  0  0999 V2000
  -36.1718  -16.6992    4.8673 C   0  0  0  0  0  0  0  0  0  0  0  0
  -36.4352  -15.3704    4.7452 N   0  0  0  0  0  0  0  0  0  0  0  0
  -37.4118  -14.7549    5.4630 C   0  0  0  0  0  0  0  0  0  0  0  0
  -38.1412  -15.4762    6.3543 N   0  0  0  0  0  0  0  0  0  0  0  0
  -37.9351  -16.8069    6.5229 C   0  0  0  0  0  0  0  0  0  0  0  0
  -38.7197  -17.5210    7.4361 C   0  0  0  0  0  0  0  0  0  0  0  0
  -38.5353  -18.8955    7.5904 C   0  0  0  0  0  0  0  0  0  0  0  0
  -37.5745  -19.5645    6.8284 C   0  0  0  0  0  0  0  0  0  0  0  0
  -36.7806  -18.8610    5.9174 C   0  0  0  0  0  0  0  0  0  0  0  0
  -36.9418  -17.4696    5.7660 C   0  0  0  0  0  0  0  0  0  0  0  0
  -37.6856  -13.3108    5.2761 C   0  0  0  0  0  0  0  0  0  0  0  0
  -38.1173  -12.8362    4.0229 C   0  0  0  0  0  0  0  0  0  0  0  0
  -38.3594  -11.4743    3.8254 C   0  0  0  0  0  0  0  0  0  0  0  0
  -38.1640  -10.5691    4.8708 C   0  0  0  0  0  0  0  0  0  0  0  0
  -37.7343  -11.0250    6.1188 C   0  0  0  0  0  0  0  0  0  0  0  0
  -37.4992  -12.3885    6.3279 C   0  0  0  0  0  0  0  0  0  0  0  0
  -37.0533  -12.7910    7.5450 F   0  0  0  0  0  0  0  0  0  0  0  0
  -35.0726  -17.2733    4.1368 N   0  0  0  0  0  0  0  0  0  0  0  0
  -34.5277  -17.9634    4.5796 H   0  0  0  0  0  0  0  0  0  0  0  0
  -35.1308  -16.9502    0.3810 C   0  0  0  0  0  0  0  0  0  0  0  0
  -34.0480  -16.0790    0.1912 C   0  0  0  0  0  0  0  0  0  0  0  0
  -33.2866  -15.6503    1.2809 C   0  0  0  0  0  0  0  0  0  0  0  0
  -33.6213  -16.0584    2.5751 C   0  0  0  0  0  0  0  0  0  0  0  0
  -34.7285  -16.8911    2.7923 C   0  0  0  0  0  0  0  0  0  0  0  0
  -35.4662  -17.3545    1.6864 C   0  0  0  0  0  0  0  0  0  0  0  0
  -37.0168  -16.9604   -3.0006 C   0  0  0  0  0  0  0  0  0  0  0  0
  -36.4879  -16.4423   -1.7048 C   0  0  0  0  0  0  0  0  0  0  0  0
  -36.5781  -15.2118   -1.4447 O   0  0  0  0  0  0  0  0  0  0  0  0
  -35.9165  -17.3548   -0.7534 N   0  0  0  0  0  0  0  0  0  0  0  0
  -36.0728  -18.3177   -0.8865 H   0  0  0  0  0  0  0  0  0  0  0  0
 26 27  1  0  0  0
 27 28  2  0  0  0
 27 29  1  0  0  0
 29 20  1  0  0  0
 20 21  2  0  0  0
 21 22  1  0  0  0
 22 23  2  0  0  0
 23 24  1  0  0  0
 24 18  1  0  0  0
 18  1  1  0  0  0
  1  2  2  0  0  0
  2  3  1  0  0  0
  3  4  2  0  0  0
  4  5  1  0  0  0
  5  6  2  0  0  0
  6  7  1  0  0  0
  7  8  2  0  0  0
  8  9  1  0  0  0
  9 10  2  0  0  0
  3 11  1  0  0  0
 11 12  2  0  0  0
 12 13  1  0  0  0
 13 14  2  0  0  0
 14 15  1  0  0  0
 15 16  2  0  0  0
 16 17  1  0  0  0
 24 25  2  0  0  0
 25 20  1  0  0  0
 10  1  1  0  0  0
 10  5  1  0  0  0
 16 11  1  0  0  0
 29 30  1  0  0  0
 18 19  1  0  0  0
M  END
> <minimizedAffinity>
-7.76221

> <newdefault_CNNaffinity>
6.32528

> <newdefault_CNNscore>
0.405319

> <CNNaffinity_times_score>
2.5637562

> <protein>
2xwe

$$$$
24786636


 20 21  0  0  0  0  0  0  0  0999 V2000
    3.4971   -7.5714   46.1299 C   0  0  0  0  0  0  0  0  0  0  0  0
    4.1105   -9.8329   47.1043 C   0  0  0  0  0  0  0  0  0  0  0  0
    4.2693  -10.6792   48.2178 C   0  0  0  0  0  0  0  0  0  0  0  0
    3.9841  -10.2155   49.5043 C   0  0  0  0  0  0  0  0  0  0  0  0
    3.5501   -8.9048   49.6968 C   0  0  0  0  0  0  0  0  0  0  0  0
    3.3940   -8.0513   48.6040 C   0  0  0  0  0  0  0  0  0  0  0  0
    3.6608   -8.5072   47.3013 C   0  0  0  0  0  0  0  0  0  0  0  0
    4.3891  -10.2707   45.7981 O   0  0  0  0  0  0  0  0  0  0  0  0
    6.1994  -11.5036   44.8032 C   0  0  0  0  0  0  0  0  0  0  0  0
    4.8305  -11.5816   45.4572 C   0  0  0  0  0  0  0  0  0  0  0  0
    4.7469   -7.4602   45.3711 N   0  0  0  0  0  0  0  0  0  0  0  0
    5.0561   -8.2558   44.8807 H   0  0  0  0  0  0  0  0  0  0  0  0
    5.5546   -6.2698   45.2918 C   0  0  0  0  0  0  0  0  0  0  0  0
    5.0645   -5.0742   44.7387 C   0  0  0  0  0  0  0  0  0  0  0  0
    5.8767   -3.9331   44.6824 C   0  0  0  0  0  0  0  0  0  0  0  0
    7.1834   -3.9707   45.1751 C   0  0  0  0  0  0  0  0  0  0  0  0
    7.9796   -2.8266   45.1125 O   0  0  0  0  0  0  0  0  0  0  0  0
    7.6791   -5.1597   45.7242 C   0  0  0  0  0  0  0  0  0  0  0  0
    6.8723   -6.2998   45.7784 C   0  0  0  0  0  0  0  0  0  0  0  0
    7.6367   -2.0369   44.7428 H   0  0  0  0  0  0  0  0  0  0  0  0
  9 10  1  0  0  0
 10  8  1  0  0  0
  8  2  1  0  0  0
  2  3  2  0  0  0
  3  4  1  0  0  0
  4  5  2  0  0  0
  5  6  1  0  0  0
  6  7  2  0  0  0
  7  1  1  0  0  0
  1 11  1  0  0  0
 11 13  1  0  0  0
 13 14  2  0  0  0
 14 15  1  0  0  0
 15 16  2  0  0  0
 16 17  1  0  0  0
 16 18  1  0  0  0
 18 19  2  0  0  0
  7  2  1  0  0  0
 19 13  1  0  0  0
 11 12  1  0  0  0
 17 20  1  0  0  0
M  END
> <minimizedAffinity>
-4.62564

> <newdefault_CNNaffinity>
4.3122

> <newdefault_CNNscore>
0.689503

> <CNNaffinity_times_score>
2.973275

> <protein>
3rik

$$$$
24786908


 20 21  0  0  0  0  0  0  0  0999 V2000
   33.6507   31.8762   -3.9760 C   0  0  0  0  0  0  0  0  0  0  0  0
   33.6997   32.5458   -2.7416 C   0  0  0  0  0  0  0  0  0  0  0  0
   34.5149   32.0770   -1.7037 C   0  0  0  0  0  0  0  0  0  0  0  0
   34.5540   32.7189   -0.5012 N   0  0  0  0  0  0  0  0  0  0  0  0
   35.3398   32.2621    0.5122 C   0  0  0  0  0  0  0  0  0  0  0  0
   35.3615   32.8712    1.6161 O   0  0  0  0  0  0  0  0  0  0  0  0
   36.1206   31.1146    0.3196 C   0  0  0  0  0  0  0  0  0  0  0  0
   36.8542   30.6786    1.2480 O   0  0  0  0  0  0  0  0  0  0  0  0
   36.0846   30.4695   -0.8786 N   0  0  0  0  0  0  0  0  0  0  0  0
   35.2984   30.9223   -1.8964 C   0  0  0  0  0  0  0  0  0  0  0  0
   35.2695   30.2605   -3.1304 C   0  0  0  0  0  0  0  0  0  0  0  0
   34.4674   30.7357   -4.1829 C   0  0  0  0  0  0  0  0  0  0  0  0
   34.0056   33.5249   -0.3638 H   0  0  0  0  0  0  0  0  0  0  0  0
   36.6345   29.6639   -1.0122 H   0  0  0  0  0  0  0  0  0  0  0  0
   33.0610   33.4033   -5.7817 O   0  0  0  0  0  0  0  0  0  0  0  0
   32.7306   32.3343   -4.9808 N   0  0  0  0  0  0  0  0  0  0  0  0
   31.5600   31.9014   -5.0077 O   0  0  0  0  0  0  0  0  0  0  0  0
   34.5375   30.0896   -5.4651 N   0  0  0  0  0  0  0  0  0  0  0  0
   34.2818   28.8721   -5.5701 O   0  0  0  0  0  0  0  0  0  0  0  0
   35.0830   30.7488   -6.5427 O   0  0  0  0  0  0  0  0  0  0  0  0
 15 16  1  0  0  0
 16 17  2  0  0  0
 16  1  1  0  0  0
  1  2  2  0  0  0
  2  3  1  0  0  0
  3  4  1  0  0  0
  4  5  1  0  0  0
  5  6  2  0  0  0
  5  7  1  0  0  0
  7  8  2  0  0  0
  7  9  1  0  0  0
  9 10  1  0  0  0
 10 11  1  0  0  0
 11 12  2  0  0  0
 12 18  1  0  0  0
 18 19  2  0  0  0
 18 20  1  0  0  0
 12  1  1  0  0  0
 10  3  2  0  0  0
  4 13  1  0  0  0
  9 14  1  0  0  0
M  CHG 1  15  -1
M  CHG 1  16   1
M  CHG 1  18   1
M  CHG 1  20  -1
M  END
> <minimizedAffinity>
-7.07630

> <newdefault_CNNaffinity>
5.52095

> <newdefault_CNNscore>
0.499766

> <CNNaffinity_times_score>
2.759183

> <protein>
2v3e

$$$$
24787554


 34 37  0  0  0  0  0  0  0  0999 V2000
   32.4528   33.4700   -8.8340 C   0  0  0  0  0  0  0  0  0  0  0  0
   32.6443   33.2516  -10.3371 C   0  0  0  0  0  0  0  0  0  0  0  0
   34.0071   32.9538  -10.6542 O   0  0  0  0  0  0  0  0  0  0  0  0
   36.1641   29.4904   -9.5490 C   0  0  0  0  0  0  0  0  0  0  0  0
   35.1619   29.4015  -10.5287 C   0  0  0  0  0  0  0  0  0  0  0  0
   34.4320   30.5342  -10.9059 C   0  0  0  0  0  0  0  0  0  0  0  0
   34.6906   31.7796  -10.3039 C   0  0  0  0  0  0  0  0  0  0  0  0
   35.6824   31.8650   -9.3238 C   0  0  0  0  0  0  0  0  0  0  0  0
   36.4298   30.7409   -8.9647 C   0  0  0  0  0  0  0  0  0  0  0  0
   37.0763   27.3492  -10.0271 O   0  0  0  0  0  0  0  0  0  0  0  0
   36.9761   28.2973   -9.1966 C   0  0  0  0  0  0  0  0  0  0  0  0
   37.6692   28.1712   -7.8930 C   0  0  0  0  0  0  0  0  0  0  0  0
   39.0341   28.4845   -7.7895 C   0  0  0  0  0  0  0  0  0  0  0  0
   39.6940   28.3734   -6.5610 C   0  0  0  0  0  0  0  0  0  0  0  0
   39.0033   27.9351   -5.4297 C   0  0  0  0  0  0  0  0  0  0  0  0
   37.6531   27.5957   -5.5314 C   0  0  0  0  0  0  0  0  0  0  0  0
   36.9832   27.7168   -6.7518 C   0  0  0  0  0  0  0  0  0  0  0  0
   33.3811   34.4315   -8.3712 O   0  0  0  0  0  0  0  0  0  0  0  0
   33.8171   34.1430   -7.0579 C   0  0  0  0  0  0  0  0  0  0  0  0
   32.9837   33.0048   -6.4478 C   0  0  0  0  0  0  0  0  0  0  0  0
   33.5759   32.4371   -5.2053 N   0  0  0  0  0  0  0  0  0  0  0  0
   34.5758   33.3637   -4.6034 C   0  0  0  0  0  0  0  0  0  0  0  0
   35.6355   32.6472   -3.7321 C   0  0  0  0  0  0  0  0  0  0  0  0
   35.1342   31.3802   -3.1683 N   0  0  0  0  0  0  0  0  0  0  0  0
   34.6957   30.4336   -4.2199 C   0  0  0  0  0  0  0  0  0  0  0  0
   34.1908   31.1275   -5.5036 C   0  0  0  0  0  0  0  0  0  0  0  0
   32.8300   32.3111   -4.5211 H   0  0  0  0  0  0  0  0  0  0  0  0
   34.1485   31.5955   -2.0864 C   0  0  0  0  0  0  0  0  0  0  0  0
   34.8769   31.7361   -0.7781 C   0  0  0  0  0  0  0  0  0  0  0  0
   35.8894   30.8209   -0.4457 C   0  0  0  0  0  0  0  0  0  0  0  0
   36.5912   30.9502    0.7576 C   0  0  0  0  0  0  0  0  0  0  0  0
   36.2933   31.9982    1.6322 C   0  0  0  0  0  0  0  0  0  0  0  0
   35.2801   32.9093    1.3139 C   0  0  0  0  0  0  0  0  0  0  0  0
   34.5711   32.7813    0.1126 C   0  0  0  0  0  0  0  0  0  0  0  0
 10 11  2  0  0  0
 11 12  1  0  0  0
 12 13  2  0  0  0
 13 14  1  0  0  0
 14 15  2  0  0  0
 15 16  1  0  0  0
 16 17  2  0  0  0
 11  4  1  0  0  0
  4  5  2  0  0  0
  5  6  1  0  0  0
  6  7  2  0  0  0
  7  3  1  0  0  0
  3  2  1  0  0  0
  2  1  1  0  0  0
  1 18  1  0  0  0
 18 19  1  0  0  0
 19 20  1  0  0  0
 20 21  1  0  0  0
 21 22  1  0  0  0
 22 23  1  0  0  0
 23 24  1  0  0  0
 24 28  1  0  0  0
 28 29  1  0  0  0
 29 30  2  0  0  0
 30 31  1  0  0  0
 31 32  2  0  0  0
 32 33  1  0  0  0
 33 34  2  0  0  0
 24 25  1  0  0  0
 25 26  1  0  0  0
  7  8  1  0  0  0
  8  9  2  0  0  0
 17 12  1  0  0  0
  9  4  1  0  0  0
 26 21  1  0  0  0
 34 29  1  0  0  0
 21 27  1  0  0  0
M  CHG 1  21   1
M  END
> <minimizedAffinity>
-5.06478

> <newdefault_CNNaffinity>
4.99936

> <newdefault_CNNscore>
0.028516

> <CNNaffinity_times_score>
0.14256175

> <protein>
2v3e

$$$$
24788447


 36 38  0  0  0  0  0  0  0  0999 V2000
    5.6781   -2.7000   45.0933 N   0  0  0  0  0  0  0  0  0  0  0  0
    2.6162   -2.9101   42.1484 C   0  0  0  0  0  0  0  0  0  0  0  0
    3.8682   -3.4895   41.9122 C   0  0  0  0  0  0  0  0  0  0  0  0
    4.8751   -3.4237   42.8788 C   0  0  0  0  0  0  0  0  0  0  0  0
    4.6398   -2.7808   44.1029 C   0  0  0  0  0  0  0  0  0  0  0  0
    3.3864   -2.2010   44.3440 C   0  0  0  0  0  0  0  0  0  0  0  0
    2.3811   -2.2594   43.3746 C   0  0  0  0  0  0  0  0  0  0  0  0
    1.6392   -3.0024   41.1466 O   0  0  0  0  0  0  0  0  0  0  0  0
    1.9233   -1.1469   39.6416 C   0  0  0  0  0  0  0  0  0  0  0  0
    0.9706   -1.8849   40.5676 C   0  0  0  0  0  0  0  0  0  0  0  0
    5.8469   -3.9734   46.2666 S   0  0  0  0  0  0  0  0  0  0  0  0
    4.6228   -4.0046   47.1377 O   0  0  0  0  0  0  0  0  0  0  0  0
    7.0414   -3.7126   47.1416 O   0  0  0  0  0  0  0  0  0  0  0  0
    6.0903   -5.5225   45.4277 C   0  0  0  0  0  0  0  0  0  0  0  0
    5.0265   -6.4387   45.2549 C   0  0  0  0  0  0  0  0  0  0  0  0
    3.6335   -6.1543   45.7387 C   0  0  0  0  0  0  0  0  0  0  0  0
    5.2494   -7.6085   44.5976 N   0  0  0  0  0  0  0  0  0  0  0  0
    6.4771   -7.9319   44.1228 C   0  0  0  0  0  0  0  0  0  0  0  0
    6.6687   -9.1353   43.4585 O   0  0  0  0  0  0  0  0  0  0  0  0
    7.5177   -7.0820   44.2987 N   0  0  0  0  0  0  0  0  0  0  0  0
    7.3571   -5.8942   44.9377 C   0  0  0  0  0  0  0  0  0  0  0  0
    8.4616   -5.0670   45.0979 O   0  0  0  0  0  0  0  0  0  0  0  0
    6.4900   -1.4861   45.2213 C   0  0  0  0  0  0  0  0  0  0  0  0
    6.0052   -0.6269   46.3531 C   0  0  0  0  0  0  0  0  0  0  0  0
    5.1258    0.2560   46.1488 O   0  0  0  0  0  0  0  0  0  0  0  0
    6.5682   -0.7936   47.6601 N   0  0  0  0  0  0  0  0  0  0  0  0
    7.2264   -1.5114   47.8046 H   0  0  0  0  0  0  0  0  0  0  0  0
    6.2019    0.0617   48.7862 C   0  0  0  0  0  0  0  0  0  0  0  0
    6.7062   -0.5493   50.0961 C   0  0  0  0  0  0  0  0  0  0  0  0
    7.2930    0.5070   50.9972 C   0  0  0  0  0  0  0  0  0  0  0  0
    8.3420    1.3277   50.5447 C   0  0  0  0  0  0  0  0  0  0  0  0
    8.8850    2.3054   51.3843 C   0  0  0  0  0  0  0  0  0  0  0  0
    8.3871    2.4710   52.6812 C   0  0  0  0  0  0  0  0  0  0  0  0
    9.0656    3.7015   53.7309 Cl  0  0  0  0  0  0  0  0  0  0  0  0
    7.3465    1.6559   53.1397 C   0  0  0  0  0  0  0  0  0  0  0  0
    6.8026    0.6758   52.3037 C   0  0  0  0  0  0  0  0  0  0  0  0
  9 10  1  0  0  0
 10  8  1  0  0  0
  8  2  1  0  0  0
  2  3  2  0  0  0
  3  4  1  0  0  0
  4  5  2  0  0  0
  5  6  1  0  0  0
  6  7  2  0  0  0
  5  1  1  0  0  0
  1 23  1  0  0  0
 23 24  1  0  0  0
 24 25  2  0  0  0
 24 26  1  0  0  0
 26 28  1  0  0  0
 28 29  1  0  0  0
 29 30  1  0  0  0
 30 31  2  0  0  0
 31 32  1  0  0  0
 32 33  2  0  0  0
 33 34  1  0  0  0
 33 35  1  0  0  0
 35 36  2  0  0  0
  1 11  1  0  0  0
 11 12  2  0  0  0
 11 13  2  0  0  0
 11 14  1  0  0  0
 14 15  2  0  0  0
 15 16  1  0  0  0
 15 17  1  0  0  0
 17 18  2  0  0  0
 18 19  1  0  0  0
 18 20  1  0  0  0
 20 21  2  0  0  0
 21 22  1  0  0  0
  7  2  1  0  0  0
 36 30  1  0  0  0
 21 14  1  0  0  0
 26 27  1  0  0  0
M  CHG 1  19  -1
M  CHG 1  22  -1
M  END
> <minimizedAffinity>
-7.06587

> <newdefault_CNNaffinity>
5.83673

> <newdefault_CNNscore>
0.222285

> <CNNaffinity_times_score>
1.2974175

> <protein>
3rik

$$$$
24789260


 34 37  0  0  0  0  0  0  0  0999 V2000
   36.8521   33.1437   -6.4401 S   0  0  0  0  0  0  0  0  0  0  0  0
   36.0303   33.9804   -7.3822 O   0  0  0  0  0  0  0  0  0  0  0  0
   38.1568   33.8535   -6.2040 O   0  0  0  0  0  0  0  0  0  0  0  0
   35.9963   32.9792   -4.9040 C   0  0  0  0  0  0  0  0  0  0  0  0
   34.7419   33.5676   -4.7267 C   0  0  0  0  0  0  0  0  0  0  0  0
   34.0526   33.4027   -3.5252 C   0  0  0  0  0  0  0  0  0  0  0  0
   34.6092   32.6636   -2.4691 C   0  0  0  0  0  0  0  0  0  0  0  0
   33.8106   32.4657   -1.2887 N   0  0  0  0  0  0  0  0  0  0  0  0
   34.3245   32.4989    0.0472 C   0  0  0  0  0  0  0  0  0  0  0  0
   33.5384   32.3360    1.0184 O   0  0  0  0  0  0  0  0  0  0  0  0
   35.7772   32.7080    0.3071 C   0  0  0  0  0  0  0  0  0  0  0  0
   36.5277   31.5434   -0.2415 C   0  0  0  0  0  0  0  0  0  0  0  0
   37.1969   30.8144    0.5391 O   0  0  0  0  0  0  0  0  0  0  0  0
   36.5015   31.2383   -1.6407 N   0  0  0  0  0  0  0  0  0  0  0  0
   35.8893   32.0732   -2.6402 C   0  0  0  0  0  0  0  0  0  0  0  0
   36.5601   32.2324   -3.8631 C   0  0  0  0  0  0  0  0  0  0  0  0
   32.8480   32.2965   -1.4074 H   0  0  0  0  0  0  0  0  0  0  0  0
   36.9301   30.4033   -1.9379 H   0  0  0  0  0  0  0  0  0  0  0  0
   37.3972   29.2910   -8.5284 N   0  0  0  0  0  0  0  0  0  0  0  0
   36.3158   29.3277   -7.5339 C   0  0  0  0  0  0  0  0  0  0  0  0
   35.9468   30.7720   -7.1841 C   0  0  0  0  0  0  0  0  0  0  0  0
   37.1707   31.5864   -7.1653 N   0  0  0  0  0  0  0  0  0  0  0  0
   37.7238   31.7566   -8.5256 C   0  0  0  0  0  0  0  0  0  0  0  0
   37.6359   30.4691   -9.3724 C   0  0  0  0  0  0  0  0  0  0  0  0
   38.1473   25.6673   -9.1974 C   0  0  0  0  0  0  0  0  0  0  0  0
   39.5528   25.6859   -9.1619 C   0  0  0  0  0  0  0  0  0  0  0  0
   40.2354   26.8799   -8.9217 C   0  0  0  0  0  0  0  0  0  0  0  0
   39.5279   28.0664   -8.7181 C   0  0  0  0  0  0  0  0  0  0  0  0
   38.1253   28.0697   -8.7539 C   0  0  0  0  0  0  0  0  0  0  0  0
   37.4423   26.8645   -8.9890 C   0  0  0  0  0  0  0  0  0  0  0  0
   36.5084   24.1655   -8.4032 F   0  0  0  0  0  0  0  0  0  0  0  0
   37.3805   24.3944   -9.4519 C   0  0  0  0  0  0  0  0  0  0  0  0
   36.6512   24.4623  -10.6259 F   0  0  0  0  0  0  0  0  0  0  0  0
   38.2645   23.3349   -9.5432 F   0  0  0  0  0  0  0  0  0  0  0  0
 31 32  1  0  0  0
 32 33  1  0  0  0
 32 34  1  0  0  0
 32 25  1  0  0  0
 25 26  2  0  0  0
 26 27  1  0  0  0
 27 28  2  0  0  0
 28 29  1  0  0  0
 29 30  2  0  0  0
 29 19  1  0  0  0
 19 20  1  0  0  0
 20 21  1  0  0  0
 21 22  1  0  0  0
 22 23  1  0  0  0
 23 24  1  0  0  0
 22  1  1  0  0  0
  1  2  2  0  0  0
  1  3  2  0  0  0
  1  4  1  0  0  0
  4  5  2  0  0  0
  5  6  1  0  0  0
  6  7  2  0  0  0
  7  8  1  0  0  0
  8  9  1  0  0  0
  9 10  2  0  0  0
  9 11  1  0  0  0
 11 12  1  0  0  0
 12 13  2  0  0  0
 12 14  1  0  0  0
 14 15  1  0  0  0
 15 16  2  0  0  0
 30 25  1  0  0  0
 24 19  1  0  0  0
 16  4  1  0  0  0
 15  7  1  0  0  0
  8 17  1  0  0  0
 14 18  1  0  0  0
M  END
> <minimizedAffinity>
-8.49487

> <newdefault_CNNaffinity>
6.18343

> <newdefault_CNNscore>
0.188346

> <CNNaffinity_times_score>
1.1646243

> <protein>
2v3d

$$$$
24790560


 28 29  0  0  0  0  0  0  0  0999 V2000
   -7.4164   -7.2679   38.9211 C   0  0  0  0  0  0  0  0  0  0  0  0
   -8.6350   -6.5908   39.1250 C   0  0  0  0  0  0  0  0  0  0  0  0
   -9.7266   -7.2437   39.7157 C   0  0  0  0  0  0  0  0  0  0  0  0
   -9.5924   -8.5850   40.1072 C   0  0  0  0  0  0  0  0  0  0  0  0
   -8.3878   -9.2614   39.9094 C   0  0  0  0  0  0  0  0  0  0  0  0
   -7.2932   -8.6102   39.3113 C   0  0  0  0  0  0  0  0  0  0  0  0
   -6.2390   -6.2340   36.9684 C   0  0  0  0  0  0  0  0  0  0  0  0
   -6.3063   -6.6427   38.3307 O   0  0  0  0  0  0  0  0  0  0  0  0
  -10.9921   -6.5080   39.9122 C   0  0  0  0  0  0  0  0  0  0  0  0
  -12.0148   -6.7120   39.1379 N   0  0  0  0  0  0  0  0  0  0  0  0
  -13.2278   -6.0162   39.2926 N   0  0  0  0  0  0  0  0  0  0  0  0
  -14.3416   -6.5846   39.6723 C   0  0  0  0  0  0  0  0  0  0  0  0
  -15.5390   -5.8064   39.7550 N   0  0  0  0  0  0  0  0  0  0  0  0
  -14.3854   -7.9655   40.0552 N   0  0  0  0  0  0  0  0  0  0  0  0
  -13.2381   -5.0498   39.1049 H   0  0  0  0  0  0  0  0  0  0  0  0
  -15.5277   -4.8566   39.4962 H   0  0  0  0  0  0  0  0  0  0  0  0
  -16.3745   -6.2207   40.0707 H   0  0  0  0  0  0  0  0  0  0  0  0
  -13.5711   -8.5164   40.0047 H   0  0  0  0  0  0  0  0  0  0  0  0
  -15.2299   -8.3628   40.3685 H   0  0  0  0  0  0  0  0  0  0  0  0
   -6.0650   -9.2562   39.0886 O   0  0  0  0  0  0  0  0  0  0  0  0
   -5.3870  -10.0946   40.0250 C   0  0  0  0  0  0  0  0  0  0  0  0
   -4.7212   -9.2693   41.0938 C   0  0  0  0  0  0  0  0  0  0  0  0
   -3.9651   -8.1401   40.7395 C   0  0  0  0  0  0  0  0  0  0  0  0
   -3.3432   -7.3698   41.7268 C   0  0  0  0  0  0  0  0  0  0  0  0
   -3.4762   -7.7174   43.0750 C   0  0  0  0  0  0  0  0  0  0  0  0
   -2.6944   -6.7508   44.3123 Cl  0  0  0  0  0  0  0  0  0  0  0  0
   -4.2355   -8.8353   43.4355 C   0  0  0  0  0  0  0  0  0  0  0  0
   -4.8588   -9.6075   42.4504 C   0  0  0  0  0  0  0  0  0  0  0  0
  7  8  1  0  0  0
  8  1  1  0  0  0
  1  2  2  0  0  0
  2  3  1  0  0  0
  3  9  1  0  0  0
  9 10  2  0  0  0
 10 11  1  0  0  0
 11 12  2  0  0  0
 12 13  1  0  0  0
 12 14  1  0  0  0
  3  4  2  0  0  0
  4  5  1  0  0  0
  5  6  2  0  0  0
  6 20  1  0  0  0
 20 21  1  0  0  0
 21 22  1  0  0  0
 22 23  2  0  0  0
 23 24  1  0  0  0
 24 25  2  0  0  0
 25 26  1  0  0  0
 25 27  1  0  0  0
 27 28  2  0  0  0
  6  1  1  0  0  0
 28 22  1  0  0  0
 11 15  1  0  0  0
 13 16  1  0  0  0
 13 17  1  0  0  0
 14 18  1  0  0  0
 14 19  1  0  0  0
M  CHG 1  11   1
M  END
> <minimizedAffinity>
-6.92148

> <newdefault_CNNaffinity>
5.63235

> <newdefault_CNNscore>
0.543501

> <CNNaffinity_times_score>
3.061188

> <protein>
3ril

$$$$
24791152


 23 25  0  0  0  0  0  0  0  0999 V2000
   -8.9981   -8.2762   38.4854 C   0  0  0  0  0  0  0  0  0  0  0  0
   -8.5534   -9.3652   39.2516 C   0  0  0  0  0  0  0  0  0  0  0  0
   -8.3295  -10.6094   38.6563 C   0  0  0  0  0  0  0  0  0  0  0  0
   -8.5429  -10.7911   37.2789 C   0  0  0  0  0  0  0  0  0  0  0  0
   -8.9837   -9.6993   36.5109 C   0  0  0  0  0  0  0  0  0  0  0  0
   -9.2080   -8.4552   37.1070 C   0  0  0  0  0  0  0  0  0  0  0  0
   -8.3058  -12.1137   36.6458 C   0  0  0  0  0  0  0  0  0  0  0  0
   -9.0822  -13.2308   37.0092 C   0  0  0  0  0  0  0  0  0  0  0  0
   -8.8573  -14.4746   36.4113 C   0  0  0  0  0  0  0  0  0  0  0  0
   -7.8573  -14.6184   35.4471 C   0  0  0  0  0  0  0  0  0  0  0  0
   -7.0800  -13.5182   35.0782 C   0  0  0  0  0  0  0  0  0  0  0  0
   -7.3011  -12.2718   35.6721 C   0  0  0  0  0  0  0  0  0  0  0  0
   -9.2337   -6.9638   39.1352 C   0  0  0  0  0  0  0  0  0  0  0  0
   -8.2450   -5.6910   38.8095 S   0  0  0  0  0  0  0  0  0  0  0  0
  -12.9431   -7.5378   40.2630 N   0  0  0  0  0  0  0  0  0  0  0  0
  -12.7398   -6.1705   39.7109 C   0  0  0  0  0  0  0  0  0  0  0  0
  -11.2875   -5.6623   39.8417 C   0  0  0  0  0  0  0  0  0  0  0  0
  -10.3566   -6.7809   40.0175 N   0  0  0  0  0  0  0  0  0  0  0  0
  -10.6182   -7.7582   41.0804 C   0  0  0  0  0  0  0  0  0  0  0  0
  -12.1056   -7.7515   41.4662 C   0  0  0  0  0  0  0  0  0  0  0  0
  -12.6521   -8.2237   39.5664 H   0  0  0  0  0  0  0  0  0  0  0  0
  -15.2896   -6.7564   39.8252 C   0  0  0  0  0  0  0  0  0  0  0  0
  -14.3819   -7.7517   40.5582 C   0  0  0  0  0  0  0  0  0  0  0  0
 22 23  1  0  0  0
 23 15  1  0  0  0
 15 16  1  0  0  0
 16 17  1  0  0  0
 17 18  1  0  0  0
 18 19  1  0  0  0
 19 20  1  0  0  0
 18 13  1  0  0  0
 13 14  2  0  0  0
 13  1  1  0  0  0
  1  2  2  0  0  0
  2  3  1  0  0  0
  3  4  2  0  0  0
  4  5  1  0  0  0
  5  6  2  0  0  0
  4  7  1  0  0  0
  7  8  2  0  0  0
  8  9  1  0  0  0
  9 10  2  0  0  0
 10 11  1  0  0  0
 11 12  2  0  0  0
 20 15  1  0  0  0
  6  1  1  0  0  0
 12  7  1  0  0  0
 15 21  1  0  0  0
M  CHG 1  15   1
M  END
> <minimizedAffinity>
-7.05119

> <newdefault_CNNaffinity>
6.02655

> <newdefault_CNNscore>
0.796327

> <CNNaffinity_times_score>
4.799104

> <protein>
3ril

$$$$
24792000


 25 28  0  0  0  0  0  0  0  0999 V2000
  -34.9686  -16.9794    1.8330 C   0  0  0  0  0  0  0  0  0  0  0  0
  -35.8179  -17.8704    2.4077 N   0  0  0  0  0  0  0  0  0  0  0  0
  -35.6616  -18.3163    3.6843 C   0  0  0  0  0  0  0  0  0  0  0  0
  -34.5780  -17.8239    4.4526 C   0  0  0  0  0  0  0  0  0  0  0  0
  -34.3417  -18.1849    5.7972 C   0  0  0  0  0  0  0  0  0  0  0  0
  -33.2455  -17.6580    6.4875 C   0  0  0  0  0  0  0  0  0  0  0  0
  -32.3779  -16.7649    5.8577 C   0  0  0  0  0  0  0  0  0  0  0  0
  -32.6051  -16.3857    4.5344 C   0  0  0  0  0  0  0  0  0  0  0  0
  -33.6990  -16.9038    3.8322 C   0  0  0  0  0  0  0  0  0  0  0  0
  -33.9163  -16.5105    2.5523 N   0  0  0  0  0  0  0  0  0  0  0  0
  -33.0220  -15.4406    0.3225 F   0  0  0  0  0  0  0  0  0  0  0  0
  -34.2008  -15.7757   -0.2610 C   0  0  0  0  0  0  0  0  0  0  0  0
  -34.4302  -15.3612   -1.5776 C   0  0  0  0  0  0  0  0  0  0  0  0
  -35.6289  -15.6773   -2.2181 C   0  0  0  0  0  0  0  0  0  0  0  0
  -36.6061  -16.4104   -1.5452 C   0  0  0  0  0  0  0  0  0  0  0  0
  -36.3873  -16.8309   -0.2306 C   0  0  0  0  0  0  0  0  0  0  0  0
  -35.1823  -16.5211    0.4334 C   0  0  0  0  0  0  0  0  0  0  0  0
  -36.5982  -19.2832    4.1972 N   0  0  0  0  0  0  0  0  0  0  0  0
  -36.4409  -20.2423    4.0401 H   0  0  0  0  0  0  0  0  0  0  0  0
  -37.7805  -18.8593    4.9488 C   0  0  0  0  0  0  0  0  0  0  0  0
  -38.0578  -19.8002    6.0805 C   0  0  0  0  0  0  0  0  0  0  0  0
  -39.2358  -19.9443    6.6424 O   0  0  0  0  0  0  0  0  0  0  0  0
  -39.1359  -20.8400    7.5976 C   0  0  0  0  0  0  0  0  0  0  0  0
  -37.8375  -21.3045    7.6661 C   0  0  0  0  0  0  0  0  0  0  0  0
  -37.1385  -20.6335    6.6857 C   0  0  0  0  0  0  0  0  0  0  0  0
 11 12  1  0  0  0
 12 13  2  0  0  0
 13 14  1  0  0  0
 14 15  2  0  0  0
 15 16  1  0  0  0
 16 17  2  0  0  0
 17  1  1  0  0  0
  1  2  2  0  0  0
  2  3  1  0  0  0
  3 18  1  0  0  0
 18 20  1  0  0  0
 20 21  1  0  0  0
 21 22  1  0  0  0
 22 23  1  0  0  0
 23 24  2  0  0  0
 24 25  1  0  0  0
  3  4  2  0  0  0
  4  5  1  0  0  0
  5  6  2  0  0  0
  6  7  1  0  0  0
  7  8  2  0  0  0
  8  9  1  0  0  0
  9 10  2  0  0  0
 17 12  1  0  0  0
 10  1  1  0  0  0
 25 21  2  0  0  0
  9  4  1  0  0  0
 18 19  1  0  0  0
M  END
> <minimizedAffinity>
-8.64575

> <newdefault_CNNaffinity>
5.74652

> <newdefault_CNNscore>
0.367712

> <CNNaffinity_times_score>
2.1130643

> <protein>
2xwe

$$$$
24793203


 23 25  0  0  0  0  0  0  0  0999 V2000
    4.3601   -3.6141   43.0773 C   0  0  0  0  0  0  0  0  0  0  0  0
    4.9714   -4.8528   43.2105 C   0  0  0  0  0  0  0  0  0  0  0  0
    5.9406   -4.7993   44.1587 N   0  0  0  0  0  0  0  0  0  0  0  0
    6.7624   -5.9100   44.5723 C   0  0  0  0  0  0  0  0  0  0  0  0
    7.4065   -5.8618   45.6536 O   0  0  0  0  0  0  0  0  0  0  0  0
    6.8264   -7.1629   43.7535 C   0  0  0  0  0  0  0  0  0  0  0  0
    5.9348   -3.5262   44.6299 C   0  0  0  0  0  0  0  0  0  0  0  0
    6.7479   -2.9540   45.6189 C   0  0  0  0  0  0  0  0  0  0  0  0
    6.5326   -1.6071   45.9600 C   0  0  0  0  0  0  0  0  0  0  0  0
    5.5216   -0.8590   45.3237 C   0  0  0  0  0  0  0  0  0  0  0  0
    4.7237   -1.4451   44.3283 C   0  0  0  0  0  0  0  0  0  0  0  0
    4.9710   -2.7771   43.9905 C   0  0  0  0  0  0  0  0  0  0  0  0
    2.5587   -1.8043   40.2366 C   0  0  0  0  0  0  0  0  0  0  0  0
    3.5413   -2.7274   40.8910 C   0  0  0  0  0  0  0  0  0  0  0  0
    4.6315   -2.9759   40.3075 O   0  0  0  0  0  0  0  0  0  0  0  0
    3.2738   -3.2992   42.1864 N   0  0  0  0  0  0  0  0  0  0  0  0
    1.9311   -3.6461   42.5731 C   0  0  0  0  0  0  0  0  0  0  0  0
    1.3376   -4.8311   42.1070 C   0  0  0  0  0  0  0  0  0  0  0  0
    0.0413   -5.1735   42.5024 C   0  0  0  0  0  0  0  0  0  0  0  0
   -0.6703   -4.3396   43.3709 C   0  0  0  0  0  0  0  0  0  0  0  0
   -2.2961   -4.7715   43.8676 Cl  0  0  0  0  0  0  0  0  0  0  0  0
   -0.0816   -3.1636   43.8477 C   0  0  0  0  0  0  0  0  0  0  0  0
    1.2148   -2.8192   43.4539 C   0  0  0  0  0  0  0  0  0  0  0  0
 13 14  1  0  0  0
 14 15  2  0  0  0
 14 16  1  0  0  0
 16 17  1  0  0  0
 17 18  2  0  0  0
 18 19  1  0  0  0
 19 20  2  0  0  0
 20 21  1  0  0  0
 20 22  1  0  0  0
 22 23  2  0  0  0
 16  1  1  0  0  0
  1  2  2  0  0  0
  2  3  1  0  0  0
  3  4  1  0  0  0
  4  5  2  0  0  0
  4  6  1  0  0  0
  3  7  1  0  0  0
  7  8  2  0  0  0
  8  9  1  0  0  0
  9 10  2  0  0  0
 10 11  1  0  0  0
 11 12  2  0  0  0
 23 17  1  0  0  0
 12  1  1  0  0  0
 12  7  1  0  0  0
M  END
> <minimizedAffinity>
-5.49535

> <newdefault_CNNaffinity>
5.2317

> <newdefault_CNNscore>
0.549161

> <CNNaffinity_times_score>
2.8730457

> <protein>
3rik

$$$$
24797102


 24 27  0  0  0  0  0  0  0  0999 V2000
  -35.1356  -15.2409   -1.9462 C   0  0  0  0  0  0  0  0  0  0  0  0
  -34.8910  -15.6748   -0.5317 C   0  0  0  0  0  0  0  0  0  0  0  0
  -33.6772  -15.3294    0.1040 C   0  0  0  0  0  0  0  0  0  0  0  0
  -33.4443  -15.7344    1.4259 C   0  0  0  0  0  0  0  0  0  0  0  0
  -34.4121  -16.4466    2.0576 N   0  0  0  0  0  0  0  0  0  0  0  0
  -34.4509  -16.9739    3.2897 C   0  0  0  0  0  0  0  0  0  0  0  0
  -35.6603  -17.6440    3.4303 C   0  0  0  0  0  0  0  0  0  0  0  0
  -36.3714  -17.5355    2.2804 N   0  0  0  0  0  0  0  0  0  0  0  0
  -35.5715  -16.8007    1.4775 C   0  0  0  0  0  0  0  0  0  0  0  0
  -35.8581  -16.4276    0.1662 C   0  0  0  0  0  0  0  0  0  0  0  0
  -36.1791  -18.3129    4.6345 C   0  0  0  0  0  0  0  0  0  0  0  0
  -35.5023  -19.2758    5.3738 C   0  0  0  0  0  0  0  0  0  0  0  0
  -36.2549  -19.7881    6.4378 C   0  0  0  0  0  0  0  0  0  0  0  0
  -37.5294  -19.2452    6.5327 C   0  0  0  0  0  0  0  0  0  0  0  0
  -37.7184  -18.1302    5.2895 S   0  0  0  0  0  0  0  0  0  0  0  0
  -33.3637  -16.9358    4.2202 N   0  0  0  0  0  0  0  0  0  0  0  0
  -32.6898  -17.6535    4.2199 H   0  0  0  0  0  0  0  0  0  0  0  0
  -33.2547  -15.8304    5.1711 C   0  0  0  0  0  0  0  0  0  0  0  0
  -32.2604  -16.1571    6.2544 C   0  0  0  0  0  0  0  0  0  0  0  0
  -31.0617  -16.8188    5.9369 C   0  0  0  0  0  0  0  0  0  0  0  0
  -30.1387  -17.1275    6.9410 C   0  0  0  0  0  0  0  0  0  0  0  0
  -30.4073  -16.7850    8.2687 C   0  0  0  0  0  0  0  0  0  0  0  0
  -31.6016  -16.1375    8.5954 C   0  0  0  0  0  0  0  0  0  0  0  0
  -32.5278  -15.8278    7.5948 C   0  0  0  0  0  0  0  0  0  0  0  0
  1  2  1  0  0  0
  2  3  1  0  0  0
  3  4  2  0  0  0
  4  5  1  0  0  0
  5  6  1  0  0  0
  6 16  1  0  0  0
 16 18  1  0  0  0
 18 19  1  0  0  0
 19 20  2  0  0  0
 20 21  1  0  0  0
 21 22  2  0  0  0
 22 23  1  0  0  0
 23 24  2  0  0  0
  6  7  2  0  0  0
  7  8  1  0  0  0
  8  9  2  0  0  0
  9 10  1  0  0  0
  7 11  1  0  0  0
 11 12  2  0  0  0
 12 13  1  0  0  0
 13 14  2  0  0  0
 14 15  1  0  0  0
 10  2  2  0  0  0
  9  5  1  0  0  0
 24 19  1  0  0  0
 15 11  1  0  0  0
 16 17  1  0  0  0
M  END
> <minimizedAffinity>
-7.20288

> <newdefault_CNNaffinity>
5.56094

> <newdefault_CNNscore>
0.254932

> <CNNaffinity_times_score>
1.4176614

> <protein>
2xwe

$$$$
24800363


 31 34  0  0  0  0  0  0  0  0999 V2000
   36.7799   33.1318   -4.1088 C   0  0  0  0  0  0  0  0  0  0  0  0
   37.1353   34.4611   -4.2318 C   0  0  0  0  0  0  0  0  0  0  0  0
   37.7369   34.6336   -5.4280 N   0  0  0  0  0  0  0  0  0  0  0  0
   37.7623   33.4821   -6.0830 N   0  0  0  0  0  0  0  0  0  0  0  0
   37.1810   32.5459   -5.3077 C   0  0  0  0  0  0  0  0  0  0  0  0
   36.9911   31.1479   -5.7486 C   0  0  0  0  0  0  0  0  0  0  0  0
   37.8294   30.1197   -5.2790 C   0  0  0  0  0  0  0  0  0  0  0  0
   37.6176   28.7974   -5.6840 C   0  0  0  0  0  0  0  0  0  0  0  0
   36.5548   28.4854   -6.5386 C   0  0  0  0  0  0  0  0  0  0  0  0
   36.3461   27.2011   -6.9245 F   0  0  0  0  0  0  0  0  0  0  0  0
   35.6972   29.4962   -6.9847 C   0  0  0  0  0  0  0  0  0  0  0  0
   35.9107   30.8210   -6.5883 C   0  0  0  0  0  0  0  0  0  0  0  0
   38.2659   35.8626   -5.9593 C   0  0  0  0  0  0  0  0  0  0  0  0
   39.1429   35.8611   -7.0612 C   0  0  0  0  0  0  0  0  0  0  0  0
   39.6453   37.0623   -7.5715 C   0  0  0  0  0  0  0  0  0  0  0  0
   39.2753   38.2845   -6.9961 C   0  0  0  0  0  0  0  0  0  0  0  0
   39.8445   39.5685   -7.5286 C   0  0  0  0  0  0  0  0  0  0  0  0
   38.4103   38.2906   -5.8894 C   0  0  0  0  0  0  0  0  0  0  0  0
   37.9013   37.0910   -5.3832 C   0  0  0  0  0  0  0  0  0  0  0  0
   36.1739   32.4806   -2.8856 C   0  0  0  0  0  0  0  0  0  0  0  0
   34.8638   31.8446   -3.1694 N   0  0  0  0  0  0  0  0  0  0  0  0
   33.8756   32.8479   -3.6152 C   0  0  0  0  0  0  0  0  0  0  0  0
   34.9833   31.1677   -3.9230 H   0  0  0  0  0  0  0  0  0  0  0  0
   34.3797   31.1462   -1.9542 C   0  0  0  0  0  0  0  0  0  0  0  0
   35.4518   31.6382    0.3135 N   0  0  0  0  0  0  0  0  0  0  0  0
   35.2783   32.6137    1.2256 C   0  0  0  0  0  0  0  0  0  0  0  0
   34.3591   33.5166    0.7343 C   0  0  0  0  0  0  0  0  0  0  0  0
   33.9339   33.1106   -0.4773 N   0  0  0  0  0  0  0  0  0  0  0  0
   34.6097   31.9589   -0.7038 C   0  0  0  0  0  0  0  0  0  0  0  0
   37.7956   30.8587    0.4512 C   0  0  0  0  0  0  0  0  0  0  0  0
   36.3192   30.4625    0.4768 C   0  0  0  0  0  0  0  0  0  0  0  0
 30 31  1  0  0  0
 31 25  1  0  0  0
 25 26  1  0  0  0
 26 27  2  0  0  0
 27 28  1  0  0  0
 28 29  2  0  0  0
 29 24  1  0  0  0
 24 21  1  0  0  0
 21 22  1  0  0  0
 21 20  1  0  0  0
 20  1  1  0  0  0
  1  2  2  0  0  0
  2  3  1  0  0  0
  3  4  1  0  0  0
  4  5  2  0  0  0
  5  6  1  0  0  0
  6  7  2  0  0  0
  7  8  1  0  0  0
  8  9  2  0  0  0
  9 10  1  0  0  0
  9 11  1  0  0  0
 11 12  2  0  0  0
  3 13  1  0  0  0
 13 14  2  0  0  0
 14 15  1  0  0  0
 15 16  2  0  0  0
 16 17  1  0  0  0
 16 18  1  0  0  0
 18 19  2  0  0  0
 29 25  1  0  0  0
  5  1  1  0  0  0
 12  6  1  0  0  0
 19 13  1  0  0  0
 21 23  1  0  0  0
M  CHG 1  21   1
M  END
> <minimizedAffinity>
-6.54294

> <newdefault_CNNaffinity>
6.66855

> <newdefault_CNNscore>
0.406602

> <CNNaffinity_times_score>
2.7114458

> <protein>
2v3e

$$$$
24801884


 32 36  0  0  0  0  0  0  0  0999 V2000
   37.0406   30.9545   -5.2768 C   0  0  0  0  0  0  0  0  0  0  0  0
   37.1743   32.1077   -4.1965 C   0  0  0  0  0  0  0  0  0  0  0  0
   37.5783   33.2989   -5.0403 C   0  0  0  0  0  0  0  0  0  0  0  0
   37.8298   34.6322   -4.6747 C   0  0  0  0  0  0  0  0  0  0  0  0
   38.2351   35.5490   -5.6671 C   0  0  0  0  0  0  0  0  0  0  0  0
   38.3935   35.1363   -7.0067 C   0  0  0  0  0  0  0  0  0  0  0  0
   38.1478   33.7979   -7.3516 C   0  0  0  0  0  0  0  0  0  0  0  0
   38.2646   33.2886   -8.6564 C   0  0  0  0  0  0  0  0  0  0  0  0
   37.9701   31.9298   -8.9025 C   0  0  0  0  0  0  0  0  0  0  0  0
   37.5700   31.0816   -7.8496 C   0  0  0  0  0  0  0  0  0  0  0  0
   37.4930   31.6068   -6.5532 C   0  0  0  0  0  0  0  0  0  0  0  0
   37.7553   32.9230   -6.3397 C   0  0  0  0  0  0  0  0  0  0  0  0
   35.9443   32.4111   -3.3999 N   0  0  0  0  0  0  0  0  0  0  0  0
   34.8788   31.3754   -3.4732 C   0  0  0  0  0  0  0  0  0  0  0  0
   33.9101   31.4566   -2.2845 C   0  0  0  0  0  0  0  0  0  0  0  0
   34.5978   31.2151   -1.0020 N   0  0  0  0  0  0  0  0  0  0  0  0
   36.0180   31.6145   -1.0102 C   0  0  0  0  0  0  0  0  0  0  0  0
   36.2839   32.7677   -1.9918 C   0  0  0  0  0  0  0  0  0  0  0  0
   34.5440   30.2189   -0.7896 H   0  0  0  0  0  0  0  0  0  0  0  0
   34.1299   31.7870   -0.2989 H   0  0  0  0  0  0  0  0  0  0  0  0
   37.9001   29.8222   -4.8896 N   0  0  0  0  0  0  0  0  0  0  0  0
   38.8581   30.0346   -5.1682 H   0  0  0  0  0  0  0  0  0  0  0  0
   37.4353   28.3091   -5.6229 S   0  0  0  0  0  0  0  0  0  0  0  0
   37.5406   27.1609   -4.6572 O   0  0  0  0  0  0  0  0  0  0  0  0
   36.0181   28.4204   -6.1129 O   0  0  0  0  0  0  0  0  0  0  0  0
   41.2618   27.1382  -10.5121 Cl  0  0  0  0  0  0  0  0  0  0  0  0
   40.1985   27.4662   -9.1561 C   0  0  0  0  0  0  0  0  0  0  0  0
   40.6940   28.1106   -8.0174 C   0  0  0  0  0  0  0  0  0  0  0  0
   39.8471   28.3721   -6.9358 C   0  0  0  0  0  0  0  0  0  0  0  0
   38.4976   27.9938   -6.9895 C   0  0  0  0  0  0  0  0  0  0  0  0
   38.0062   27.3420   -8.1297 C   0  0  0  0  0  0  0  0  0  0  0  0
   38.8544   27.0811   -9.2105 C   0  0  0  0  0  0  0  0  0  0  0  0
 26 27  1  0  0  0
 27 28  2  0  0  0
 28 29  1  0  0  0
 29 30  2  0  0  0
 30 31  1  0  0  0
 31 32  2  0  0  0
 30 23  1  0  0  0
 23 24  2  0  0  0
 23 25  2  0  0  0
 23 21  1  0  0  0
  1 21  1  0  0  0
  1  2  1  0  0  0
  2 13  1  0  0  0
 13 14  1  0  0  0
 14 15  1  0  0  0
 15 16  1  0  0  0
 16 17  1  0  0  0
 17 18  1  0  0  0
  2  3  1  0  0  0
  3  4  2  0  0  0
  4  5  1  0  0  0
  5  6  2  0  0  0
  6  7  1  0  0  0
  7  8  2  0  0  0
  8  9  1  0  0  0
  9 10  2  0  0  0
 10 11  1  0  0  0
 11 12  2  0  0  0
 32 27  1  0  0  0
 11  1  1  0  0  0
 18 13  1  0  0  0
 12  3  1  0  0  0
 12  7  1  0  0  0
 21 22  1  0  0  0
 16 19  1  0  0  0
 16 20  1  0  0  0
M  CHG 1  16   1
M  END
> <minimizedAffinity>
-7.65400

> <newdefault_CNNaffinity>
6.62573

> <newdefault_CNNscore>
0.664809

> <CNNaffinity_times_score>
4.4048448

> <protein>
2v3d

$$$$
24807586


 29 32  0  0  0  0  0  0  0  0999 V2000
    6.2306   -2.6511   44.7600 C   0  0  0  0  0  0  0  0  0  0  0  0
    5.3451   -2.2589   43.8066 N   0  0  0  0  0  0  0  0  0  0  0  0
    4.7477   -3.1466   42.9664 C   0  0  0  0  0  0  0  0  0  0  0  0
    5.0367   -4.4704   43.0798 N   0  0  0  0  0  0  0  0  0  0  0  0
    5.8967   -4.9291   44.0244 C   0  0  0  0  0  0  0  0  0  0  0  0
    6.1524   -6.3013   44.1256 C   0  0  0  0  0  0  0  0  0  0  0  0
    7.0072   -6.7827   45.1201 C   0  0  0  0  0  0  0  0  0  0  0  0
    7.6011   -5.8973   46.0231 C   0  0  0  0  0  0  0  0  0  0  0  0
    7.3548   -4.5241   45.9291 C   0  0  0  0  0  0  0  0  0  0  0  0
    6.5166   -4.0236   44.9141 C   0  0  0  0  0  0  0  0  0  0  0  0
    3.7950   -2.6736   41.9317 C   0  0  0  0  0  0  0  0  0  0  0  0
    2.4608   -2.3715   42.2692 C   0  0  0  0  0  0  0  0  0  0  0  0
    1.5655   -1.9258   41.2920 C   0  0  0  0  0  0  0  0  0  0  0  0
    1.9879   -1.7760   39.9697 C   0  0  0  0  0  0  0  0  0  0  0  0
    3.3072   -2.0717   39.6212 C   0  0  0  0  0  0  0  0  0  0  0  0
    4.2076   -2.5178   40.5936 C   0  0  0  0  0  0  0  0  0  0  0  0
    6.8405   -1.6477   45.5816 N   0  0  0  0  0  0  0  0  0  0  0  0
    7.8112   -1.4985   45.5120 H   0  0  0  0  0  0  0  0  0  0  0  0
    6.0640   -0.8389   46.5204 C   0  0  0  0  0  0  0  0  0  0  0  0
    5.9208   -1.5736   47.8531 C   0  0  0  0  0  0  0  0  0  0  0  0
    5.6901   -0.6479   48.9133 O   0  0  0  0  0  0  0  0  0  0  0  0
    7.0009   -1.3804   50.6670 O   0  0  0  0  0  0  0  0  0  0  0  0
    6.6013   -0.4199   49.9524 C   0  0  0  0  0  0  0  0  0  0  0  0
    7.0885    0.9516   50.2145 C   0  0  0  0  0  0  0  0  0  0  0  0
    8.4399    1.1952   50.5131 C   0  0  0  0  0  0  0  0  0  0  0  0
    8.8803    2.4974   50.7563 C   0  0  0  0  0  0  0  0  0  0  0  0
    7.9669    3.5504   50.6994 C   0  0  0  0  0  0  0  0  0  0  0  0
    6.6624    3.3041   50.4093 N   0  0  0  0  0  0  0  0  0  0  0  0
    6.2072    2.0453   50.1685 C   0  0  0  0  0  0  0  0  0  0  0  0
 22 23  2  0  0  0
 23 21  1  0  0  0
 21 20  1  0  0  0
 20 19  1  0  0  0
 19 17  1  0  0  0
 17  1  1  0  0  0
  1  2  2  0  0  0
  2  3  1  0  0  0
  3  4  2  0  0  0
  4  5  1  0  0  0
  5  6  2  0  0  0
  6  7  1  0  0  0
  7  8  2  0  0  0
  8  9  1  0  0  0
  9 10  2  0  0  0
  3 11  1  0  0  0
 11 12  2  0  0  0
 12 13  1  0  0  0
 13 14  2  0  0  0
 14 15  1  0  0  0
 15 16  2  0  0  0
 23 24  1  0  0  0
 24 25  2  0  0  0
 25 26  1  0  0  0
 26 27  2  0  0  0
 27 28  1  0  0  0
 28 29  2  0  0  0
 10  1  1  0  0  0
 10  5  1  0  0  0
 16 11  1  0  0  0
 29 24  1  0  0  0
 17 18  1  0  0  0
M  END
> <minimizedAffinity>
-5.92546

> <newdefault_CNNaffinity>
5.44093

> <newdefault_CNNscore>
0.482554

> <CNNaffinity_times_score>
2.6255424

> <protein>
3rik

$$$$
24813549


 31 34  0  0  0  0  0  0  0  0999 V2000
   34.5044   31.9065   -4.9642 S   0  0  0  0  0  0  0  0  0  0  0  0
   34.0298   33.1740   -5.6234 O   0  0  0  0  0  0  0  0  0  0  0  0
   33.3685   30.9218   -4.9486 O   0  0  0  0  0  0  0  0  0  0  0  0
   34.9835   32.2365   -3.3011 C   0  0  0  0  0  0  0  0  0  0  0  0
   34.8334   33.5220   -2.7580 C   0  0  0  0  0  0  0  0  0  0  0  0
   35.2102   33.7760   -1.4357 C   0  0  0  0  0  0  0  0  0  0  0  0
   35.7283   32.7445   -0.6388 C   0  0  0  0  0  0  0  0  0  0  0  0
   36.0838   32.9723    0.6578 N   0  0  0  0  0  0  0  0  0  0  0  0
   36.5789   31.9685    1.4362 C   0  0  0  0  0  0  0  0  0  0  0  0
   36.9019   32.2014    2.6331 O   0  0  0  0  0  0  0  0  0  0  0  0
   36.7268   30.6818    0.8991 C   0  0  0  0  0  0  0  0  0  0  0  0
   37.1801   29.7417    1.6083 O   0  0  0  0  0  0  0  0  0  0  0  0
   36.3754   30.4476   -0.3959 N   0  0  0  0  0  0  0  0  0  0  0  0
   35.8802   31.4483   -1.1806 C   0  0  0  0  0  0  0  0  0  0  0  0
   35.5145   31.2028   -2.5129 C   0  0  0  0  0  0  0  0  0  0  0  0
   35.9816   33.8749    1.0374 H   0  0  0  0  0  0  0  0  0  0  0  0
   36.4802   29.5435   -0.7712 H   0  0  0  0  0  0  0  0  0  0  0  0
   36.7507   28.9513   -7.3362 N   0  0  0  0  0  0  0  0  0  0  0  0
   37.3392   29.2493   -6.0287 C   0  0  0  0  0  0  0  0  0  0  0  0
   36.3450   30.0290   -5.1625 C   0  0  0  0  0  0  0  0  0  0  0  0
   35.8584   31.2452   -5.8488 N   0  0  0  0  0  0  0  0  0  0  0  0
   35.5170   31.0627   -7.2858 C   0  0  0  0  0  0  0  0  0  0  0  0
   35.5007   29.5955   -7.7361 C   0  0  0  0  0  0  0  0  0  0  0  0
   38.3805   29.7176   -9.6326 C   0  0  0  0  0  0  0  0  0  0  0  0
   38.1131   28.2775   -9.2893 C   0  0  0  0  0  0  0  0  0  0  0  0
   38.6385   27.2545  -10.0976 C   0  0  0  0  0  0  0  0  0  0  0  0
   38.3836   25.9122   -9.7954 C   0  0  0  0  0  0  0  0  0  0  0  0
   37.6135   25.5764   -8.6774 C   0  0  0  0  0  0  0  0  0  0  0  0
   37.2985   23.8922   -8.3015 Cl  0  0  0  0  0  0  0  0  0  0  0  0
   37.0842   26.5853   -7.8664 C   0  0  0  0  0  0  0  0  0  0  0  0
   37.3298   27.9352   -8.1644 C   0  0  0  0  0  0  0  0  0  0  0  0
 24 25  1  0  0  0
 25 26  2  0  0  0
 26 27  1  0  0  0
 27 28  2  0  0  0
 28 29  1  0  0  0
 28 30  1  0  0  0
 30 31  2  0  0  0
 31 18  1  0  0  0
 18 19  1  0  0  0
 19 20  1  0  0  0
 20 21  1  0  0  0
 21 22  1  0  0  0
 22 23  1  0  0  0
 21  1  1  0  0  0
  1  2  2  0  0  0
  1  3  2  0  0  0
  1  4  1  0  0  0
  4  5  2  0  0  0
  5  6  1  0  0  0
  6  7  2  0  0  0
  7  8  1  0  0  0
  8  9  1  0  0  0
  9 10  2  0  0  0
  9 11  1  0  0  0
 11 12  2  0  0  0
 11 13  1  0  0  0
 13 14  1  0  0  0
 14 15  2  0  0  0
 31 25  1  0  0  0
 23 18  1  0  0  0
 15  4  1  0  0  0
 14  7  1  0  0  0
  8 16  1  0  0  0
 13 17  1  0  0  0
M  END
> <minimizedAffinity>
-8.48652

> <newdefault_CNNaffinity>
7.14331

> <newdefault_CNNscore>
0.571231

> <CNNaffinity_times_score>
4.08048

> <protein>
2v3e

$$$$
24814003


 27 30  0  0  0  0  0  0  0  0999 V2000
   -9.4618   -6.4801   38.3463 C   0  0  0  0  0  0  0  0  0  0  0  0
   -9.9910   -5.7798   39.4448 C   0  0  0  0  0  0  0  0  0  0  0  0
  -10.4988   -6.4720   40.5598 C   0  0  0  0  0  0  0  0  0  0  0  0
  -10.4570   -7.8719   40.5816 C   0  0  0  0  0  0  0  0  0  0  0  0
   -9.9119   -8.5138   39.5183 N   0  0  0  0  0  0  0  0  0  0  0  0
   -9.7024   -9.8269   39.3306 C   0  0  0  0  0  0  0  0  0  0  0  0
   -9.0477   -9.9715   38.1113 C   0  0  0  0  0  0  0  0  0  0  0  0
   -8.8648   -8.7457   37.5600 N   0  0  0  0  0  0  0  0  0  0  0  0
   -9.4167   -7.8836   38.4389 C   0  0  0  0  0  0  0  0  0  0  0  0
   -8.4253   -8.5318   36.7054 H   0  0  0  0  0  0  0  0  0  0  0  0
   -8.5940  -11.2484   37.5050 C   0  0  0  0  0  0  0  0  0  0  0  0
   -9.4439  -12.3708   37.4730 C   0  0  0  0  0  0  0  0  0  0  0  0
   -9.0116  -13.5718   36.9017 C   0  0  0  0  0  0  0  0  0  0  0  0
   -7.7299  -13.6682   36.3570 C   0  0  0  0  0  0  0  0  0  0  0  0
   -6.8774  -12.5630   36.3811 C   0  0  0  0  0  0  0  0  0  0  0  0
   -7.3041  -11.3592   36.9501 C   0  0  0  0  0  0  0  0  0  0  0  0
   -8.5701   -4.5133   37.2666 C   0  0  0  0  0  0  0  0  0  0  0  0
   -8.9654   -5.7485   37.2171 N   0  0  0  0  0  0  0  0  0  0  0  0
   -9.9312   -2.1929   36.0916 O   0  0  0  0  0  0  0  0  0  0  0  0
   -8.7617   -2.6826   35.5102 C   0  0  0  0  0  0  0  0  0  0  0  0
   -8.2479   -2.0547   34.3653 C   0  0  0  0  0  0  0  0  0  0  0  0
   -7.0785   -2.5239   33.7652 C   0  0  0  0  0  0  0  0  0  0  0  0
   -6.4104   -3.6250   34.3028 C   0  0  0  0  0  0  0  0  0  0  0  0
   -4.8093   -4.2645   33.4807 Br  0  0  0  0  0  0  0  0  0  0  0  0
   -6.9125   -4.2595   35.4429 C   0  0  0  0  0  0  0  0  0  0  0  0
   -8.0898   -3.8008   36.0597 C   0  0  0  0  0  0  0  0  0  0  0  0
  -10.3658   -1.4519   35.7173 H   0  0  0  0  0  0  0  0  0  0  0  0
 19 20  1  0  0  0
 20 21  2  0  0  0
 21 22  1  0  0  0
 22 23  2  0  0  0
 23 24  1  0  0  0
 23 25  1  0  0  0
 25 26  2  0  0  0
 26 17  1  0  0  0
 17 18  2  0  0  0
 18  1  1  0  0  0
  1  2  2  0  0  0
  2  3  1  0  0  0
  3  4  2  0  0  0
  4  5  1  0  0  0
  5  6  1  0  0  0
  6  7  2  0  0  0
  7  8  1  0  0  0
  8  9  2  0  0  0
  7 11  1  0  0  0
 11 12  2  0  0  0
 12 13  1  0  0  0
 13 14  2  0  0  0
 14 15  1  0  0  0
 15 16  2  0  0  0
 26 20  1  0  0  0
  9  1  1  0  0  0
  9  5  1  0  0  0
 16 11  1  0  0  0
 19 27  1  0  0  0
  8 10  1  0  0  0
M  CHG 1   8   1
M  END
> <minimizedAffinity>
-8.30401

> <newdefault_CNNaffinity>
6.05941

> <newdefault_CNNscore>
0.505178

> <CNNaffinity_times_score>
3.0610805

> <protein>
3ril

$$$$
24814576


 29 33  0  0  0  0  0  0  0  0999 V2000
   34.7794   30.1279  -10.0457 C   0  0  0  0  0  0  0  0  0  0  0  0
   35.2239   30.6763   -8.7218 C   0  0  0  0  0  0  0  0  0  0  0  0
   36.4177   31.4274   -8.6171 C   0  0  0  0  0  0  0  0  0  0  0  0
   36.8119   31.9348   -7.3713 C   0  0  0  0  0  0  0  0  0  0  0  0
   36.0250   31.6760   -6.2954 N   0  0  0  0  0  0  0  0  0  0  0  0
   36.1409   32.0547   -5.0156 C   0  0  0  0  0  0  0  0  0  0  0  0
   35.0459   31.5440   -4.3192 C   0  0  0  0  0  0  0  0  0  0  0  0
   34.2437   30.8678   -5.1790 N   0  0  0  0  0  0  0  0  0  0  0  0
   34.8806   30.9747   -6.3642 C   0  0  0  0  0  0  0  0  0  0  0  0
   34.4387   30.4459   -7.5745 C   0  0  0  0  0  0  0  0  0  0  0  0
   34.7603   31.6518   -2.8719 C   0  0  0  0  0  0  0  0  0  0  0  0
   33.8947   32.6560   -2.4045 C   0  0  0  0  0  0  0  0  0  0  0  0
   33.6234   32.7778   -1.0381 C   0  0  0  0  0  0  0  0  0  0  0  0
   34.2061   31.8950   -0.1249 C   0  0  0  0  0  0  0  0  0  0  0  0
   33.9369   32.0364    1.2349 O   0  0  0  0  0  0  0  0  0  0  0  0
   35.0514   30.8754   -0.5856 C   0  0  0  0  0  0  0  0  0  0  0  0
   35.3186   30.7475   -1.9517 C   0  0  0  0  0  0  0  0  0  0  0  0
   33.3706   32.7213    1.5317 H   0  0  0  0  0  0  0  0  0  0  0  0
   37.1917   32.8949   -4.5144 N   0  0  0  0  0  0  0  0  0  0  0  0
   37.8605   32.4939   -3.9134 H   0  0  0  0  0  0  0  0  0  0  0  0
   37.3223   34.2882   -4.8406 C   0  0  0  0  0  0  0  0  0  0  0  0
   38.5017   34.7425   -5.4813 C   0  0  0  0  0  0  0  0  0  0  0  0
   38.6595   36.1016   -5.8134 C   0  0  0  0  0  0  0  0  0  0  0  0
   37.6165   36.9698   -5.5079 C   0  0  0  0  0  0  0  0  0  0  0  0
   37.5286   38.3273   -5.7473 O   0  0  0  0  0  0  0  0  0  0  0  0
   36.2516   38.7764   -5.2743 C   0  0  0  0  0  0  0  0  0  0  0  0
   35.6152   37.6037   -4.7429 O   0  0  0  0  0  0  0  0  0  0  0  0
   36.4780   36.5413   -4.9074 C   0  0  0  0  0  0  0  0  0  0  0  0
   36.2847   35.2111   -4.5558 C   0  0  0  0  0  0  0  0  0  0  0  0
  1  2  1  0  0  0
  2  3  1  0  0  0
  3  4  2  0  0  0
  4  5  1  0  0  0
  5  6  1  0  0  0
  6 19  1  0  0  0
 19 21  1  0  0  0
 21 22  2  0  0  0
 22 23  1  0  0  0
 23 24  2  0  0  0
 24 25  1  0  0  0
 25 26  1  0  0  0
 26 27  1  0  0  0
 27 28  1  0  0  0
 28 29  2  0  0  0
  6  7  2  0  0  0
  7  8  1  0  0  0
  8  9  2  0  0  0
  9 10  1  0  0  0
  7 11  1  0  0  0
 11 12  2  0  0  0
 12 13  1  0  0  0
 13 14  2  0  0  0
 14 15  1  0  0  0
 14 16  1  0  0  0
 16 17  2  0  0  0
 10  2  2  0  0  0
  9  5  1  0  0  0
 29 21  1  0  0  0
 28 24  1  0  0  0
 17 11  1  0  0  0
 19 20  1  0  0  0
 15 18  1  0  0  0
M  END
> <minimizedAffinity>
-7.78850

> <newdefault_CNNaffinity>
5.77371

> <newdefault_CNNscore>
0.127636

> <CNNaffinity_times_score>
0.73693323

> <protein>
2v3d

$$$$
24814667


 34 36  0  0  0  0  0  0  0  0999 V2000
   -8.3389   -7.4245   37.1025 N   0  0  0  0  0  0  0  0  0  0  0  0
   -6.8254   -4.3884   34.5376 C   0  0  0  0  0  0  0  0  0  0  0  0
   -6.1198   -5.5839   34.7162 C   0  0  0  0  0  0  0  0  0  0  0  0
   -6.6242   -6.5887   35.5463 C   0  0  0  0  0  0  0  0  0  0  0  0
   -7.8451   -6.4098   36.2132 C   0  0  0  0  0  0  0  0  0  0  0  0
   -8.5578   -5.2159   36.0329 C   0  0  0  0  0  0  0  0  0  0  0  0
   -8.0547   -4.2112   35.2010 C   0  0  0  0  0  0  0  0  0  0  0  0
   -6.2741   -3.4080   33.6998 O   0  0  0  0  0  0  0  0  0  0  0  0
   -7.4902   -1.8745   32.3009 C   0  0  0  0  0  0  0  0  0  0  0  0
   -6.7457   -2.0660   33.6122 C   0  0  0  0  0  0  0  0  0  0  0  0
   -7.7958   -7.4644   38.7534 S   0  0  0  0  0  0  0  0  0  0  0  0
   -6.8576   -6.3161   38.9907 O   0  0  0  0  0  0  0  0  0  0  0  0
   -7.0385   -8.7385   39.0082 O   0  0  0  0  0  0  0  0  0  0  0  0
   -9.2041   -7.4325   39.8375 C   0  0  0  0  0  0  0  0  0  0  0  0
   -9.9261   -6.2552   40.1511 C   0  0  0  0  0  0  0  0  0  0  0  0
   -9.5662   -4.9071   39.6027 C   0  0  0  0  0  0  0  0  0  0  0  0
  -10.9935   -6.3327   40.9903 N   0  0  0  0  0  0  0  0  0  0  0  0
  -11.3961   -7.5122   41.5227 C   0  0  0  0  0  0  0  0  0  0  0  0
  -12.4896   -7.5511   42.3763 O   0  0  0  0  0  0  0  0  0  0  0  0
  -10.7352   -8.6539   41.2174 N   0  0  0  0  0  0  0  0  0  0  0  0
   -9.6612   -8.6423   40.3890 C   0  0  0  0  0  0  0  0  0  0  0  0
   -9.0272   -9.8429   40.0910 O   0  0  0  0  0  0  0  0  0  0  0  0
   -9.3841   -8.3531   36.6615 C   0  0  0  0  0  0  0  0  0  0  0  0
   -8.7729   -9.6659   36.2734 C   0  0  0  0  0  0  0  0  0  0  0  0
   -8.2493   -9.7864   35.1335 O   0  0  0  0  0  0  0  0  0  0  0  0
   -8.7350  -10.7487   37.2175 N   0  0  0  0  0  0  0  0  0  0  0  0
   -9.1761  -10.6197   38.0882 H   0  0  0  0  0  0  0  0  0  0  0  0
   -8.0920  -12.0073   36.9659 C   0  0  0  0  0  0  0  0  0  0  0  0
   -8.8296  -13.1986   36.8589 C   0  0  0  0  0  0  0  0  0  0  0  0
   -8.1776  -14.4146   36.6319 C   0  0  0  0  0  0  0  0  0  0  0  0
   -6.7813  -14.4560   36.5081 C   0  0  0  0  0  0  0  0  0  0  0  0
   -6.0799  -15.7668   36.3096 C   0  0  0  0  0  0  0  0  0  0  0  0
   -6.0419  -13.2733   36.6537 C   0  0  0  0  0  0  0  0  0  0  0  0
   -6.6937  -12.0583   36.8833 C   0  0  0  0  0  0  0  0  0  0  0  0
  9 10  1  0  0  0
 10  8  1  0  0  0
  8  2  1  0  0  0
  2  3  2  0  0  0
  3  4  1  0  0  0
  4  5  2  0  0  0
  5  6  1  0  0  0
  6  7  2  0  0  0
  5  1  1  0  0  0
  1 23  1  0  0  0
 23 24  1  0  0  0
 24 25  2  0  0  0
 24 26  1  0  0  0
 26 28  1  0  0  0
 28 29  2  0  0  0
 29 30  1  0  0  0
 30 31  2  0  0  0
 31 32  1  0  0  0
 31 33  1  0  0  0
 33 34  2  0  0  0
  1 11  1  0  0  0
 11 12  2  0  0  0
 11 13  2  0  0  0
 11 14  1  0  0  0
 14 15  2  0  0  0
 15 16  1  0  0  0
 15 17  1  0  0  0
 17 18  2  0  0  0
 18 19  1  0  0  0
 18 20  1  0  0  0
 20 21  2  0  0  0
 21 22  1  0  0  0
  7  2  1  0  0  0
 34 28  1  0  0  0
 21 14  1  0  0  0
 26 27  1  0  0  0
M  CHG 1  19  -1
M  CHG 1  22  -1
M  END
> <minimizedAffinity>
-7.10678

> <newdefault_CNNaffinity>
6.22644

> <newdefault_CNNscore>
0.465526

> <CNNaffinity_times_score>
2.8985698

> <protein>
3ril

$$$$
24814668


 35 37  0  0  0  0  0  0  0  0999 V2000
   -7.4056   -5.0936   36.9547 N   0  0  0  0  0  0  0  0  0  0  0  0
   -5.1606   -8.4572   38.4030 C   0  0  0  0  0  0  0  0  0  0  0  0
   -6.0376   -8.6049   37.3169 C   0  0  0  0  0  0  0  0  0  0  0  0
   -6.7692   -7.5116   36.8444 C   0  0  0  0  0  0  0  0  0  0  0  0
   -6.6444   -6.2367   37.4412 C   0  0  0  0  0  0  0  0  0  0  0  0
   -5.7556   -6.1077   38.5290 C   0  0  0  0  0  0  0  0  0  0  0  0
   -5.0283   -7.2032   39.0006 C   0  0  0  0  0  0  0  0  0  0  0  0
   -4.4075   -9.5240   38.9155 O   0  0  0  0  0  0  0  0  0  0  0  0
   -5.2355  -10.0124   41.1210 C   0  0  0  0  0  0  0  0  0  0  0  0
   -4.0203   -9.6543   40.2807 C   0  0  0  0  0  0  0  0  0  0  0  0
   -7.3778   -4.6548   35.2599 S   0  0  0  0  0  0  0  0  0  0  0  0
   -8.6278   -5.1390   34.5803 O   0  0  0  0  0  0  0  0  0  0  0  0
   -6.2084   -5.3566   34.6283 O   0  0  0  0  0  0  0  0  0  0  0  0
   -7.2788   -2.8911   35.0115 C   0  0  0  0  0  0  0  0  0  0  0  0
   -8.4341   -2.0889   34.8590 C   0  0  0  0  0  0  0  0  0  0  0  0
   -9.8189   -2.6592   34.8737 C   0  0  0  0  0  0  0  0  0  0  0  0
   -8.3015   -0.7460   34.6908 N   0  0  0  0  0  0  0  0  0  0  0  0
   -7.0846   -0.1525   34.6484 C   0  0  0  0  0  0  0  0  0  0  0  0
   -6.9881    1.2213   34.4763 O   0  0  0  0  0  0  0  0  0  0  0  0
   -5.9624   -0.9004   34.7678 N   0  0  0  0  0  0  0  0  0  0  0  0
   -6.0276   -2.2447   34.9419 C   0  0  0  0  0  0  0  0  0  0  0  0
   -4.8411   -2.9593   35.0465 O   0  0  0  0  0  0  0  0  0  0  0  0
   -8.3757   -4.3927   37.8115 C   0  0  0  0  0  0  0  0  0  0  0  0
   -9.4108   -5.3480   38.3382 C   0  0  0  0  0  0  0  0  0  0  0  0
  -10.1774   -5.9414   37.5327 O   0  0  0  0  0  0  0  0  0  0  0  0
   -9.5440   -5.5622   39.7521 N   0  0  0  0  0  0  0  0  0  0  0  0
   -9.0106   -5.0046   40.3635 H   0  0  0  0  0  0  0  0  0  0  0  0
  -10.4203   -6.5531   40.3165 C   0  0  0  0  0  0  0  0  0  0  0  0
  -11.6761   -6.1657   40.8094 C   0  0  0  0  0  0  0  0  0  0  0  0
  -12.5671   -7.1146   41.3028 C   0  0  0  0  0  0  0  0  0  0  0  0
  -12.2301   -8.4655   41.2879 C   0  0  0  0  0  0  0  0  0  0  0  0
  -10.9911   -8.8886   40.7805 C   0  0  0  0  0  0  0  0  0  0  0  0
  -10.6800  -10.3634   40.7712 C   0  0  0  0  0  0  0  0  0  0  0  0
  -10.0551   -7.9226   40.3239 C   0  0  0  0  0  0  0  0  0  0  0  0
   -8.6936   -8.3395   39.8155 C   0  0  0  0  0  0  0  0  0  0  0  0
  9 10  1  0  0  0
 10  8  1  0  0  0
  8  2  1  0  0  0
  2  3  2  0  0  0
  3  4  1  0  0  0
  4  5  2  0  0  0
  5  6  1  0  0  0
  6  7  2  0  0  0
  5  1  1  0  0  0
  1 23  1  0  0  0
 23 24  1  0  0  0
 24 25  2  0  0  0
 24 26  1  0  0  0
 26 28  1  0  0  0
 28 29  2  0  0  0
 29 30  1  0  0  0
 30 31  2  0  0  0
 31 32  1  0  0  0
 32 33  1  0  0  0
 32 34  2  0  0  0
 34 35  1  0  0  0
  1 11  1  0  0  0
 11 12  2  0  0  0
 11 13  2  0  0  0
 11 14  1  0  0  0
 14 15  2  0  0  0
 15 16  1  0  0  0
 15 17  1  0  0  0
 17 18  2  0  0  0
 18 19  1  0  0  0
 18 20  1  0  0  0
 20 21  2  0  0  0
 21 22  1  0  0  0
  7  2  1  0  0  0
 34 28  1  0  0  0
 21 14  1  0  0  0
 26 27  1  0  0  0
M  CHG 1  19  -1
M  CHG 1  22  -1
M  END
> <minimizedAffinity>
-7.77030

> <newdefault_CNNaffinity>
6.27278

> <newdefault_CNNscore>
0.211953

> <CNNaffinity_times_score>
1.3295345

> <protein>
3ril

$$$$
24814693


 33 35  0  0  0  0  0  0  0  0999 V2000
    4.8222   -2.7890   45.1720 N   0  0  0  0  0  0  0  0  0  0  0  0
    4.1240   -3.1851   43.9771 C   0  0  0  0  0  0  0  0  0  0  0  0
    4.5439   -2.7047   42.7265 C   0  0  0  0  0  0  0  0  0  0  0  0
    3.8461   -3.0562   41.5645 C   0  0  0  0  0  0  0  0  0  0  0  0
    4.2954   -2.5368   40.2286 C   0  0  0  0  0  0  0  0  0  0  0  0
    2.7545   -3.9364   41.6536 C   0  0  0  0  0  0  0  0  0  0  0  0
    2.3460   -4.4470   42.8956 C   0  0  0  0  0  0  0  0  0  0  0  0
    1.1610   -5.3572   42.9898 C   0  0  0  0  0  0  0  0  0  0  0  0
    3.0182   -4.0499   44.0550 C   0  0  0  0  0  0  0  0  0  0  0  0
    5.4163   -4.0281   46.2462 S   0  0  0  0  0  0  0  0  0  0  0  0
    4.3612   -4.3113   47.2743 O   0  0  0  0  0  0  0  0  0  0  0  0
    6.6390   -3.5363   46.9670 O   0  0  0  0  0  0  0  0  0  0  0  0
    5.8613   -5.4961   45.3446 C   0  0  0  0  0  0  0  0  0  0  0  0
    6.9912   -5.5311   44.4935 C   0  0  0  0  0  0  0  0  0  0  0  0
    7.8438   -4.3234   44.2318 C   0  0  0  0  0  0  0  0  0  0  0  0
    7.3069   -6.6840   43.8470 N   0  0  0  0  0  0  0  0  0  0  0  0
    6.5702   -7.8101   44.0047 C   0  0  0  0  0  0  0  0  0  0  0  0
    6.9329   -8.9730   43.3427 O   0  0  0  0  0  0  0  0  0  0  0  0
    5.4797   -7.8014   44.8075 N   0  0  0  0  0  0  0  0  0  0  0  0
    5.1062   -6.6808   45.4725 C   0  0  0  0  0  0  0  0  0  0  0  0
    3.9758   -6.7306   46.2776 O   0  0  0  0  0  0  0  0  0  0  0  0
    4.8869   -1.3577   45.5332 C   0  0  0  0  0  0  0  0  0  0  0  0
    6.6726   -0.6180   47.2511 N   0  0  0  0  0  0  0  0  0  0  0  0
    6.2789   -0.9154   45.9010 C   0  0  0  0  0  0  0  0  0  0  0  0
    7.1455   -0.8525   44.9887 O   0  0  0  0  0  0  0  0  0  0  0  0
    7.6241   -0.4249   47.4140 H   0  0  0  0  0  0  0  0  0  0  0  0
    5.6319    1.0624   52.3081 C   0  0  0  0  0  0  0  0  0  0  0  0
    6.4786    0.3574   51.2336 C   0  0  0  0  0  0  0  0  0  0  0  0
    5.8925   -1.0416   50.9150 C   0  0  0  0  0  0  0  0  0  0  0  0
    6.3007   -1.5215   49.5162 C   0  0  0  0  0  0  0  0  0  0  0  0
    5.7655   -0.5794   48.4084 C   0  0  0  0  0  0  0  0  0  0  0  0
    5.5964    0.8841   48.8933 C   0  0  0  0  0  0  0  0  0  0  0  0
    6.6271    1.2460   49.9707 C   0  0  0  0  0  0  0  0  0  0  0  0
 27 28  1  0  0  0
 28 29  1  0  0  0
 29 30  1  0  0  0
 30 31  1  0  0  0
 31 32  1  0  0  0
 32 33  1  0  0  0
 31 23  1  0  0  0
 23 24  1  0  0  0
 24 25  2  0  0  0
 24 22  1  0  0  0
 22  1  1  0  0  0
  1  2  1  0  0  0
  2  3  2  0  0  0
  3  4  1  0  0  0
  4  5  1  0  0  0
  4  6  2  0  0  0
  6  7  1  0  0  0
  7  8  1  0  0  0
  7  9  2  0  0  0
  1 10  1  0  0  0
 10 11  2  0  0  0
 10 12  2  0  0  0
 10 13  1  0  0  0
 13 14  2  0  0  0
 14 15  1  0  0  0
 14 16  1  0  0  0
 16 17  2  0  0  0
 17 18  1  0  0  0
 17 19  1  0  0  0
 19 20  2  0  0  0
 20 21  1  0  0  0
 33 28  1  0  0  0
  9  2  1  0  0  0
 20 13  1  0  0  0
 23 26  1  0  0  0
M  CHG 1  18  -1
M  CHG 1  21  -1
M  END
> <minimizedAffinity>
-7.25643

> <newdefault_CNNaffinity>
5.80396

> <newdefault_CNNscore>
0.20786

> <CNNaffinity_times_score>
1.206411

> <protein>
3rik

$$$$
24814706


 35 37  0  0  0  0  0  0  0  0999 V2000
    5.5211   -2.4136   45.4275 N   0  0  0  0  0  0  0  0  0  0  0  0
    2.7271   -2.8207   42.2518 C   0  0  0  0  0  0  0  0  0  0  0  0
    4.0684   -3.2095   42.0716 C   0  0  0  0  0  0  0  0  0  0  0  0
    4.9864   -3.0781   43.1175 C   0  0  0  0  0  0  0  0  0  0  0  0
    4.5805   -2.5564   44.3540 C   0  0  0  0  0  0  0  0  0  0  0  0
    3.2449   -2.1742   44.5353 C   0  0  0  0  0  0  0  0  0  0  0  0
    2.3266   -2.3052   43.4900 C   0  0  0  0  0  0  0  0  0  0  0  0
    1.7684   -2.9304   41.2338 O   0  0  0  0  0  0  0  0  0  0  0  0
    1.9943   -1.0660   39.7296 C   0  0  0  0  0  0  0  0  0  0  0  0
    1.0685   -1.8269   40.6649 C   0  0  0  0  0  0  0  0  0  0  0  0
    5.8048   -3.7667   46.4840 S   0  0  0  0  0  0  0  0  0  0  0  0
    6.9746   -3.4793   47.3831 O   0  0  0  0  0  0  0  0  0  0  0  0
    4.5910   -3.9601   47.3486 O   0  0  0  0  0  0  0  0  0  0  0  0
    6.1649   -5.2327   45.5414 C   0  0  0  0  0  0  0  0  0  0  0  0
    5.1401   -6.1243   45.1468 C   0  0  0  0  0  0  0  0  0  0  0  0
    3.6982   -5.8952   45.4938 C   0  0  0  0  0  0  0  0  0  0  0  0
    5.4574   -7.2361   44.4313 N   0  0  0  0  0  0  0  0  0  0  0  0
    6.7380   -7.5183   44.0902 C   0  0  0  0  0  0  0  0  0  0  0  0
    7.0252   -8.6621   43.3583 O   0  0  0  0  0  0  0  0  0  0  0  0
    7.7384   -6.6858   44.4657 N   0  0  0  0  0  0  0  0  0  0  0  0
    7.4866   -5.5594   45.1797 C   0  0  0  0  0  0  0  0  0  0  0  0
    8.5544   -4.7487   45.5430 O   0  0  0  0  0  0  0  0  0  0  0  0
    6.3441   -1.2044   45.5263 C   0  0  0  0  0  0  0  0  0  0  0  0
    6.0070   -0.4283   46.7640 C   0  0  0  0  0  0  0  0  0  0  0  0
    5.1612    0.5037   46.6961 O   0  0  0  0  0  0  0  0  0  0  0  0
    6.6175   -0.7719   48.0186 N   0  0  0  0  0  0  0  0  0  0  0  0
    7.1892   -1.5727   48.0515 H   0  0  0  0  0  0  0  0  0  0  0  0
    6.4429   -0.0156   49.2282 C   0  0  0  0  0  0  0  0  0  0  0  0
    5.3045   -0.2314   50.0127 C   0  0  0  0  0  0  0  0  0  0  0  0
    5.1175    0.4770   51.2002 C   0  0  0  0  0  0  0  0  0  0  0  0
    6.0745    1.4080   51.6358 C   0  0  0  0  0  0  0  0  0  0  0  0
    5.8446    2.1565   52.9226 C   0  0  0  0  0  0  0  0  0  0  0  0
    7.2422    1.6150   50.8635 C   0  0  0  0  0  0  0  0  0  0  0  0
    8.3066    2.5861   51.3039 C   0  0  0  0  0  0  0  0  0  0  0  0
    7.4178    0.8944   49.6690 C   0  0  0  0  0  0  0  0  0  0  0  0
  9 10  1  0  0  0
 10  8  1  0  0  0
  8  2  1  0  0  0
  2  3  2  0  0  0
  3  4  1  0  0  0
  4  5  2  0  0  0
  5  6  1  0  0  0
  6  7  2  0  0  0
  5  1  1  0  0  0
  1 23  1  0  0  0
 23 24  1  0  0  0
 24 25  2  0  0  0
 24 26  1  0  0  0
 26 28  1  0  0  0
 28 29  2  0  0  0
 29 30  1  0  0  0
 30 31  2  0  0  0
 31 32  1  0  0  0
 31 33  1  0  0  0
 33 34  1  0  0  0
 33 35  2  0  0  0
  1 11  1  0  0  0
 11 12  2  0  0  0
 11 13  2  0  0  0
 11 14  1  0  0  0
 14 15  2  0  0  0
 15 16  1  0  0  0
 15 17  1  0  0  0
 17 18  2  0  0  0
 18 19  1  0  0  0
 18 20  1  0  0  0
 20 21  2  0  0  0
 21 22  1  0  0  0
  7  2  1  0  0  0
 35 28  1  0  0  0
 21 14  1  0  0  0
 26 27  1  0  0  0
M  CHG 1  19  -1
M  CHG 1  22  -1
M  END
> <minimizedAffinity>
-6.81651

> <newdefault_CNNaffinity>
5.86466

> <newdefault_CNNscore>
0.196928

> <CNNaffinity_times_score>
1.1549157

> <protein>
3rik

$$$$
24814781


 36 38  0  0  0  0  0  0  0  0999 V2000
    3.3201   -5.0513   43.1447 N   0  0  0  0  0  0  0  0  0  0  0  0
    2.8142   -4.0615   42.2323 C   0  0  0  0  0  0  0  0  0  0  0  0
    3.6927   -3.3279   41.4239 C   0  0  0  0  0  0  0  0  0  0  0  0
    3.2050   -2.3428   40.5607 C   0  0  0  0  0  0  0  0  0  0  0  0
    1.8341   -2.0674   40.4973 C   0  0  0  0  0  0  0  0  0  0  0  0
    0.9480   -2.8095   41.3041 C   0  0  0  0  0  0  0  0  0  0  0  0
    1.4376   -3.7946   42.1674 C   0  0  0  0  0  0  0  0  0  0  0  0
    1.4032   -1.0558   39.6214 O   0  0  0  0  0  0  0  0  0  0  0  0
    1.3621    0.3406   39.9215 C   0  0  0  0  0  0  0  0  0  0  0  0
    0.4138    1.0698   38.9732 C   0  0  0  0  0  0  0  0  0  0  0  0
    3.6588   -4.6231   44.7996 S   0  0  0  0  0  0  0  0  0  0  0  0
    3.0271   -5.6204   45.7305 O   0  0  0  0  0  0  0  0  0  0  0  0
    3.0569   -3.2744   45.0844 O   0  0  0  0  0  0  0  0  0  0  0  0
    5.4179   -4.6301   45.0682 C   0  0  0  0  0  0  0  0  0  0  0  0
    6.1851   -3.4496   44.9232 C   0  0  0  0  0  0  0  0  0  0  0  0
    5.5788   -2.1419   44.5059 C   0  0  0  0  0  0  0  0  0  0  0  0
    7.5232   -3.4860   45.1628 N   0  0  0  0  0  0  0  0  0  0  0  0
    8.1449   -4.6296   45.5433 C   0  0  0  0  0  0  0  0  0  0  0  0
    9.5128   -4.6288   45.7860 O   0  0  0  0  0  0  0  0  0  0  0  0
    7.4311   -5.7732   45.6896 N   0  0  0  0  0  0  0  0  0  0  0  0
    6.0933   -5.8033   45.4598 C   0  0  0  0  0  0  0  0  0  0  0  0
    5.4162   -7.0065   45.6203 O   0  0  0  0  0  0  0  0  0  0  0  0
    3.7335   -6.3675   42.6480 C   0  0  0  0  0  0  0  0  0  0  0  0
    2.4668   -8.0591   41.2265 N   0  0  0  0  0  0  0  0  0  0  0  0
    2.5243   -7.2144   42.3878 C   0  0  0  0  0  0  0  0  0  0  0  0
    1.5343   -7.1191   43.1640 O   0  0  0  0  0  0  0  0  0  0  0  0
    3.2588   -8.1049   40.6436 H   0  0  0  0  0  0  0  0  0  0  0  0
   -0.9320  -10.3813   40.1329 C   0  0  0  0  0  0  0  0  0  0  0  0
    0.1312  -10.1913   39.2293 C   0  0  0  0  0  0  0  0  0  0  0  0
    1.2462   -9.4340   39.6015 C   0  0  0  0  0  0  0  0  0  0  0  0
    1.3126   -8.8414   40.8707 C   0  0  0  0  0  0  0  0  0  0  0  0
    0.2647   -9.0554   41.7808 C   0  0  0  0  0  0  0  0  0  0  0  0
   -0.8480   -9.8149   41.4102 C   0  0  0  0  0  0  0  0  0  0  0  0
   -2.0893  -11.1074   39.8062 O   0  0  0  0  0  0  0  0  0  0  0  0
   -3.9690   -9.5931   39.5080 C   0  0  0  0  0  0  0  0  0  0  0  0
   -3.1034  -10.6873   38.8920 C   0  0  0  0  0  0  0  0  0  0  0  0
 35 36  1  0  0  0
 36 34  1  0  0  0
 34 28  1  0  0  0
 28 29  2  0  0  0
 29 30  1  0  0  0
 30 31  2  0  0  0
 31 24  1  0  0  0
 24 25  1  0  0  0
 25 26  2  0  0  0
 25 23  1  0  0  0
 23  1  1  0  0  0
  1  2  1  0  0  0
  2  3  2  0  0  0
  3  4  1  0  0  0
  4  5  2  0  0  0
  5  8  1  0  0  0
  8  9  1  0  0  0
  9 10  1  0  0  0
  5  6  1  0  0  0
  6  7  2  0  0  0
  1 11  1  0  0  0
 11 12  2  0  0  0
 11 13  2  0  0  0
 11 14  1  0  0  0
 14 15  2  0  0  0
 15 16  1  0  0  0
 15 17  1  0  0  0
 17 18  2  0  0  0
 18 19  1  0  0  0
 18 20  1  0  0  0
 20 21  2  0  0  0
 21 22  1  0  0  0
 31 32  1  0  0  0
 32 33  2  0  0  0
 33 28  1  0  0  0
  7  2  1  0  0  0
 21 14  1  0  0  0
 24 27  1  0  0  0
M  CHG 1  19  -1
M  CHG 1  22  -1
M  END
> <minimizedAffinity>
-5.38464

> <newdefault_CNNaffinity>
5.76083

> <newdefault_CNNscore>
0.222917

> <CNNaffinity_times_score>
1.284187

> <protein>
3rik

$$$$
24814790


 33 35  0  0  0  0  0  0  0  0999 V2000
  -36.6543  -17.9667    5.0246 N   0  0  0  0  0  0  0  0  0  0  0  0
  -35.4373  -17.1640    0.2431 C   0  0  0  0  0  0  0  0  0  0  0  0
  -35.8920  -16.6580    1.5808 C   0  0  0  0  0  0  0  0  0  0  0  0
  -36.1466  -15.2909    1.7551 C   0  0  0  0  0  0  0  0  0  0  0  0
  -36.5711  -14.7995    2.9983 C   0  0  0  0  0  0  0  0  0  0  0  0
  -36.8780  -13.3412    3.1710 C   0  0  0  0  0  0  0  0  0  0  0  0
  -36.7627  -15.6896    4.0645 C   0  0  0  0  0  0  0  0  0  0  0  0
  -36.4816  -17.0588    3.9157 C   0  0  0  0  0  0  0  0  0  0  0  0
  -36.0605  -17.5361    2.6616 C   0  0  0  0  0  0  0  0  0  0  0  0
  -35.3179  -18.3631    6.0727 S   0  0  0  0  0  0  0  0  0  0  0  0
  -35.7968  -19.1279    7.2761 O   0  0  0  0  0  0  0  0  0  0  0  0
  -34.3520  -19.2405    5.3255 O   0  0  0  0  0  0  0  0  0  0  0  0
  -34.5243  -16.8698    6.6204 C   0  0  0  0  0  0  0  0  0  0  0  0
  -33.4751  -16.2694    5.8835 C   0  0  0  0  0  0  0  0  0  0  0  0
  -32.9639  -16.8411    4.5918 C   0  0  0  0  0  0  0  0  0  0  0  0
  -32.9053  -15.1230    6.3436 N   0  0  0  0  0  0  0  0  0  0  0  0
  -33.3021  -14.5491    7.5062 C   0  0  0  0  0  0  0  0  0  0  0  0
  -32.6991  -13.3763    7.9425 O   0  0  0  0  0  0  0  0  0  0  0  0
  -34.2838  -15.1215    8.2443 N   0  0  0  0  0  0  0  0  0  0  0  0
  -34.8951  -16.2645    7.8374 C   0  0  0  0  0  0  0  0  0  0  0  0
  -35.8808  -16.8208    8.6440 O   0  0  0  0  0  0  0  0  0  0  0  0
  -37.9871  -18.4733    5.3739 C   0  0  0  0  0  0  0  0  0  0  0  0
  -38.1300  -19.9462    5.0843 C   0  0  0  0  0  0  0  0  0  0  0  0
  -37.7915  -20.3982    3.9579 O   0  0  0  0  0  0  0  0  0  0  0  0
  -38.6457  -20.8623    6.0643 N   0  0  0  0  0  0  0  0  0  0  0  0
  -38.6852  -21.8148    5.8188 H   0  0  0  0  0  0  0  0  0  0  0  0
  -39.1183  -20.4880    7.4034 C   0  0  0  0  0  0  0  0  0  0  0  0
  -38.4423  -21.3941    8.4585 C   0  0  0  0  0  0  0  0  0  0  0  0
  -39.1582  -22.7326    8.7132 C   0  0  0  0  0  0  0  0  0  0  0  0
  -40.2284  -22.6169    9.8107 C   0  0  0  0  0  0  0  0  0  0  0  0
  -41.5135  -21.9203    9.3481 C   0  0  0  0  0  0  0  0  0  0  0  0
  -41.2889  -20.4963    8.8142 C   0  0  0  0  0  0  0  0  0  0  0  0
  -40.6623  -20.4959    7.4100 C   0  0  0  0  0  0  0  0  0  0  0  0
  2  3  1  0  0  0
  3  4  2  0  0  0
  4  5  1  0  0  0
  5  6  1  0  0  0
  5  7  2  0  0  0
  7  8  1  0  0  0
  8  9  2  0  0  0
  8  1  1  0  0  0
  1 22  1  0  0  0
 22 23  1  0  0  0
 23 24  2  0  0  0
 23 25  1  0  0  0
 25 27  1  0  0  0
 27 28  1  0  0  0
 28 29  1  0  0  0
 29 30  1  0  0  0
 30 31  1  0  0  0
 31 32  1  0  0  0
 32 33  1  0  0  0
  1 10  1  0  0  0
 10 11  2  0  0  0
 10 12  2  0  0  0
 10 13  1  0  0  0
 13 14  2  0  0  0
 14 15  1  0  0  0
 14 16  1  0  0  0
 16 17  2  0  0  0
 17 18  1  0  0  0
 17 19  1  0  0  0
 19 20  2  0  0  0
 20 21  1  0  0  0
  9  3  1  0  0  0
 33 27  1  0  0  0
 20 13  1  0  0  0
 25 26  1  0  0  0
M  CHG 1  18  -1
M  CHG 1  21  -1
M  END
> <minimizedAffinity>
-7.68680

> <newdefault_CNNaffinity>
6.37191

> <newdefault_CNNscore>
0.273443

> <CNNaffinity_times_score>
1.7423543

> <protein>
2xwd

$$$$
24814791


 31 33  0  0  0  0  0  0  0  0999 V2000
  -23.2727  -20.6097    6.2010 N   0  0  0  0  0  0  0  0  0  0  0  0
  -22.2979  -15.7509    6.3844 C   0  0  0  0  0  0  0  0  0  0  0  0
  -22.8429  -16.9908    7.0297 C   0  0  0  0  0  0  0  0  0  0  0  0
  -23.4231  -16.9414    8.3077 C   0  0  0  0  0  0  0  0  0  0  0  0
  -23.9204  -18.1092    8.9068 C   0  0  0  0  0  0  0  0  0  0  0  0
  -24.5798  -18.0499   10.2527 C   0  0  0  0  0  0  0  0  0  0  0  0
  -23.8637  -19.3224    8.2074 C   0  0  0  0  0  0  0  0  0  0  0  0
  -23.3005  -19.3757    6.9261 C   0  0  0  0  0  0  0  0  0  0  0  0
  -22.7818  -18.2127    6.3451 C   0  0  0  0  0  0  0  0  0  0  0  0
  -21.8960  -21.6593    6.3595 S   0  0  0  0  0  0  0  0  0  0  0  0
  -21.5596  -21.8420    7.8134 O   0  0  0  0  0  0  0  0  0  0  0  0
  -20.7079  -21.0204    5.6982 O   0  0  0  0  0  0  0  0  0  0  0  0
  -22.2644  -23.2479    5.6503 C   0  0  0  0  0  0  0  0  0  0  0  0
  -22.1797  -23.5084    4.2606 C   0  0  0  0  0  0  0  0  0  0  0  0
  -21.7360  -22.4784    3.2644 C   0  0  0  0  0  0  0  0  0  0  0  0
  -22.5007  -24.7444    3.7929 N   0  0  0  0  0  0  0  0  0  0  0  0
  -22.9213  -25.7312    4.6212 C   0  0  0  0  0  0  0  0  0  0  0  0
  -23.2395  -26.9804    4.1068 O   0  0  0  0  0  0  0  0  0  0  0  0
  -23.0355  -25.4972    5.9505 N   0  0  0  0  0  0  0  0  0  0  0  0
  -22.7256  -24.2870    6.4798 C   0  0  0  0  0  0  0  0  0  0  0  0
  -22.8815  -24.0934    7.8471 O   0  0  0  0  0  0  0  0  0  0  0  0
  -24.3890  -20.9747    5.3286 C   0  0  0  0  0  0  0  0  0  0  0  0
  -25.6943  -20.6269    5.9927 C   0  0  0  0  0  0  0  0  0  0  0  0
  -26.0576  -21.3049    6.9908 O   0  0  0  0  0  0  0  0  0  0  0  0
  -26.5367  -19.5506    5.5455 N   0  0  0  0  0  0  0  0  0  0  0  0
  -27.2615  -19.2564    6.1432 H   0  0  0  0  0  0  0  0  0  0  0  0
  -26.3889  -18.8606    4.2575 C   0  0  0  0  0  0  0  0  0  0  0  0
  -25.3559  -17.7428    4.3284 C   0  0  0  0  0  0  0  0  0  0  0  0
  -25.7528  -16.7738    3.2283 C   0  0  0  0  0  0  0  0  0  0  0  0
  -27.2632  -16.9170    3.0611 C   0  0  0  0  0  0  0  0  0  0  0  0
  -27.6815  -18.1647    3.8373 C   0  0  0  0  0  0  0  0  0  0  0  0
  2  3  1  0  0  0
  3  4  2  0  0  0
  4  5  1  0  0  0
  5  6  1  0  0  0
  5  7  2  0  0  0
  7  8  1  0  0  0
  8  9  2  0  0  0
  8  1  1  0  0  0
  1 22  1  0  0  0
 22 23  1  0  0  0
 23 24  2  0  0  0
 23 25  1  0  0  0
 25 27  1  0  0  0
 27 28  1  0  0  0
 28 29  1  0  0  0
 29 30  1  0  0  0
 30 31  1  0  0  0
  1 10  1  0  0  0
 10 11  2  0  0  0
 10 12  2  0  0  0
 10 13  1  0  0  0
 13 14  2  0  0  0
 14 15  1  0  0  0
 14 16  1  0  0  0
 16 17  2  0  0  0
 17 18  1  0  0  0
 17 19  1  0  0  0
 19 20  2  0  0  0
 20 21  1  0  0  0
  9  3  1  0  0  0
 31 27  1  0  0  0
 20 13  1  0  0  0
 25 26  1  0  0  0
M  CHG 1  18  -1
M  CHG 1  21  -1
M  END
> <minimizedAffinity>
-8.13911

> <newdefault_CNNaffinity>
6.48595

> <newdefault_CNNscore>
0.836744

> <CNNaffinity_times_score>
5.4270797

> <protein>
2xwe

$$$$
24814927


 30 31  0  0  0  0  0  0  0  0999 V2000
    3.2769   -5.5856   43.5517 N   0  0  0  0  0  0  0  0  0  0  0  0
    2.7111   -4.6167   42.6416 C   0  0  0  0  0  0  0  0  0  0  0  0
    1.3243   -4.4088   42.5921 C   0  0  0  0  0  0  0  0  0  0  0  0
    0.7696   -3.4740   41.7089 C   0  0  0  0  0  0  0  0  0  0  0  0
   -0.7188   -3.3132   41.6150 C   0  0  0  0  0  0  0  0  0  0  0  0
    1.6100   -2.7493   40.8565 C   0  0  0  0  0  0  0  0  0  0  0  0
    2.9995   -2.9112   40.9235 C   0  0  0  0  0  0  0  0  0  0  0  0
    3.8935   -2.1332   40.0078 C   0  0  0  0  0  0  0  0  0  0  0  0
    3.5435   -3.8490   41.8085 C   0  0  0  0  0  0  0  0  0  0  0  0
    3.7899   -5.0651   45.1383 S   0  0  0  0  0  0  0  0  0  0  0  0
    3.3013   -6.0361   46.1740 O   0  0  0  0  0  0  0  0  0  0  0  0
    3.1446   -3.7357   45.4060 O   0  0  0  0  0  0  0  0  0  0  0  0
    5.5599   -4.9375   45.2742 C   0  0  0  0  0  0  0  0  0  0  0  0
    6.2342   -3.7199   45.0229 C   0  0  0  0  0  0  0  0  0  0  0  0
    5.5288   -2.4765   44.5741 C   0  0  0  0  0  0  0  0  0  0  0  0
    7.5797   -3.6536   45.1848 N   0  0  0  0  0  0  0  0  0  0  0  0
    8.2961   -4.7239   45.5965 C   0  0  0  0  0  0  0  0  0  0  0  0
    9.6688   -4.6141   45.7677 O   0  0  0  0  0  0  0  0  0  0  0  0
    7.6722   -5.8987   45.8551 N   0  0  0  0  0  0  0  0  0  0  0  0
    6.3341   -6.0319   45.7082 C   0  0  0  0  0  0  0  0  0  0  0  0
    5.7587   -7.2619   45.9927 O   0  0  0  0  0  0  0  0  0  0  0  0
    3.7508   -6.8874   43.0490 C   0  0  0  0  0  0  0  0  0  0  0  0
    3.6513   -8.7071   44.8354 N   0  0  0  0  0  0  0  0  0  0  0  0
    3.0548   -8.0355   43.7187 C   0  0  0  0  0  0  0  0  0  0  0  0
    1.9324   -8.4153   43.2800 O   0  0  0  0  0  0  0  0  0  0  0  0
    4.2294   -8.1918   45.4434 H   0  0  0  0  0  0  0  0  0  0  0  0
    3.4332  -10.1404   45.1099 C   0  0  0  0  0  0  0  0  0  0  0  0
    3.6191  -10.4575   46.5985 C   0  0  0  0  0  0  0  0  0  0  0  0
    5.7228  -11.2247   44.8210 C   0  0  0  0  0  0  0  0  0  0  0  0
    4.3407  -11.0031   44.2066 C   0  0  0  0  0  0  0  0  0  0  0  0
 29 30  1  0  0  0
 30 27  1  0  0  0
 27 28  1  0  0  0
 27 23  1  0  0  0
 23 24  1  0  0  0
 24 25  2  0  0  0
 24 22  1  0  0  0
 22  1  1  0  0  0
  1  2  1  0  0  0
  2  3  2  0  0  0
  3  4  1  0  0  0
  4  5  1  0  0  0
  4  6  2  0  0  0
  6  7  1  0  0  0
  7  8  1  0  0  0
  7  9  2  0  0  0
  1 10  1  0  0  0
 10 11  2  0  0  0
 10 12  2  0  0  0
 10 13  1  0  0  0
 13 14  2  0  0  0
 14 15  1  0  0  0
 14 16  1  0  0  0
 16 17  2  0  0  0
 17 18  1  0  0  0
 17 19  1  0  0  0
 19 20  2  0  0  0
 20 21  1  0  0  0
  9  2  1  0  0  0
 20 13  1  0  0  0
 23 26  1  0  0  0
M  CHG 1  18  -1
M  CHG 1  21  -1
M  END
> <minimizedAffinity>
-6.30343

> <newdefault_CNNaffinity>
5.43021

> <newdefault_CNNscore>
0.221413

> <CNNaffinity_times_score>
1.2023191

> <protein>
3rik

$$$$
24817747


 33 36  0  0  0  0  0  0  0  0999 V2000
    4.0475   -4.4673   42.5998 C   0  0  0  0  0  0  0  0  0  0  0  0
    6.2784   -4.6932   43.8732 C   0  0  0  0  0  0  0  0  0  0  0  0
    7.1151   -3.9930   45.1527 S   0  0  0  0  0  0  0  0  0  0  0  0
    5.9686   -2.8222   45.4737 C   0  0  0  0  0  0  0  0  0  0  0  0
    6.1017   -1.7693   46.5266 C   0  0  0  0  0  0  0  0  0  0  0  0
    4.7396   -1.1395   46.8315 C   0  0  0  0  0  0  0  0  0  0  0  0
    4.0248   -0.7410   45.5363 C   0  0  0  0  0  0  0  0  0  0  0  0
    3.7522   -1.9543   44.6222 C   0  0  0  0  0  0  0  0  0  0  0  0
    4.9171   -2.9183   44.5592 C   0  0  0  0  0  0  0  0  0  0  0  0
    5.0695   -4.0048   43.6502 C   0  0  0  0  0  0  0  0  0  0  0  0
    5.9367   -7.7052   44.5448 C   0  0  0  0  0  0  0  0  0  0  0  0
    6.9341   -7.1175   43.5974 C   0  0  0  0  0  0  0  0  0  0  0  0
    7.8959   -7.8296   43.2015 O   0  0  0  0  0  0  0  0  0  0  0  0
    6.7918   -5.7823   43.0890 N   0  0  0  0  0  0  0  0  0  0  0  0
    7.0587   -5.6044   42.1582 H   0  0  0  0  0  0  0  0  0  0  0  0
    3.1838   -3.3720   42.0552 N   0  0  0  0  0  0  0  0  0  0  0  0
    3.7177   -2.8415   40.7729 C   0  0  0  0  0  0  0  0  0  0  0  0
    2.7446   -1.8487   40.0916 C   0  0  0  0  0  0  0  0  0  0  0  0
    1.6382   -1.4987   41.0019 N   0  0  0  0  0  0  0  0  0  0  0  0
    0.8683   -2.7143   41.3521 C   0  0  0  0  0  0  0  0  0  0  0  0
    1.7968   -3.8524   41.8346 C   0  0  0  0  0  0  0  0  0  0  0  0
    3.1823   -2.6240   42.7487 H   0  0  0  0  0  0  0  0  0  0  0  0
    0.7738   -0.4475   40.4254 C   0  0  0  0  0  0  0  0  0  0  0  0
    1.1713   -0.1884   38.9698 C   0  0  0  0  0  0  0  0  0  0  0  0
    0.1203    0.4107   38.2632 O   0  0  0  0  0  0  0  0  0  0  0  0
   -0.6494   -0.1796   38.2665 H   0  0  0  0  0  0  0  0  0  0  0  0
    3.2794   -5.6915   43.1058 C   0  0  0  0  0  0  0  0  0  0  0  0
    2.7372   -5.6490   44.4061 C   0  0  0  0  0  0  0  0  0  0  0  0
    2.0729   -6.7563   44.9389 C   0  0  0  0  0  0  0  0  0  0  0  0
    1.9382   -7.9226   44.1885 C   0  0  0  0  0  0  0  0  0  0  0  0
    2.4102   -7.9630   42.8743 C   0  0  0  0  0  0  0  0  0  0  0  0
    2.2372   -9.4236   41.9260 Cl  0  0  0  0  0  0  0  0  0  0  0  0
    3.0728   -6.8566   42.3307 C   0  0  0  0  0  0  0  0  0  0  0  0
 11 12  1  0  0  0
 12 13  2  0  0  0
 12 14  1  0  0  0
 14  2  1  0  0  0
  2  3  1  0  0  0
  3  4  1  0  0  0
  4  5  1  0  0  0
  5  6  1  0  0  0
  6  7  1  0  0  0
  7  8  1  0  0  0
  8  9  1  0  0  0
  9 10  1  0  0  0
  1 10  1  0  0  0
  1 16  1  0  0  0
 16 17  1  0  0  0
 17 18  1  0  0  0
 18 19  1  0  0  0
 19 23  1  0  0  0
 23 24  1  0  0  0
 24 25  1  0  0  0
 19 20  1  0  0  0
 20 21  1  0  0  0
  1 27  1  0  0  0
 27 28  2  0  0  0
 28 29  1  0  0  0
 29 30  2  0  0  0
 30 31  1  0  0  0
 31 32  1  0  0  0
 31 33  2  0  0  0
 10  2  2  0  0  0
  9  4  2  0  0  0
 21 16  1  0  0  0
 33 27  1  0  0  0
 14 15  1  0  0  0
 16 22  1  0  0  0
 25 26  1  0  0  0
M  CHG 1  16   1
M  END
> <minimizedAffinity>
-5.78262

> <newdefault_CNNaffinity>
5.54906

> <newdefault_CNNscore>
0.126286

> <CNNaffinity_times_score>
0.7007686

> <protein>
3rik

$$$$
24819052


 36 39  0  0  0  0  0  0  0  0999 V2000
   36.2785   32.0094   -4.2434 C   0  0  0  0  0  0  0  0  0  0  0  0
   35.8473   30.7225   -4.9509 C   0  0  0  0  0  0  0  0  0  0  0  0
   36.7574   29.8087   -5.5395 C   0  0  0  0  0  0  0  0  0  0  0  0
   38.2629   29.9223   -5.5030 C   0  0  0  0  0  0  0  0  0  0  0  0
   38.9418   28.5926   -5.8710 C   0  0  0  0  0  0  0  0  0  0  0  0
   38.3338   27.9931   -7.1462 C   0  0  0  0  0  0  0  0  0  0  0  0
   36.8426   27.6731   -6.9608 C   0  0  0  0  0  0  0  0  0  0  0  0
   36.1317   28.7798   -6.2412 C   0  0  0  0  0  0  0  0  0  0  0  0
   34.4695   28.9341   -6.1047 S   0  0  0  0  0  0  0  0  0  0  0  0
   34.5168   30.3400   -5.1829 C   0  0  0  0  0  0  0  0  0  0  0  0
   33.3469   31.0090   -4.7035 N   0  0  0  0  0  0  0  0  0  0  0  0
   32.4609   31.7371   -5.5656 C   0  0  0  0  0  0  0  0  0  0  0  0
   31.3308   32.0875   -5.1336 O   0  0  0  0  0  0  0  0  0  0  0  0
   32.8524   32.1012   -6.9651 C   0  0  0  0  0  0  0  0  0  0  0  0
   33.1410   30.9682   -3.7416 H   0  0  0  0  0  0  0  0  0  0  0  0
   35.7754   32.1035   -2.8365 N   0  0  0  0  0  0  0  0  0  0  0  0
   36.5717   33.0870   -2.0591 C   0  0  0  0  0  0  0  0  0  0  0  0
   36.0791   33.1791   -0.6095 C   0  0  0  0  0  0  0  0  0  0  0  0
   36.1714   31.8605    0.0438 N   0  0  0  0  0  0  0  0  0  0  0  0
   35.3554   30.8843   -0.7050 C   0  0  0  0  0  0  0  0  0  0  0  0
   35.8450   30.7859   -2.1555 C   0  0  0  0  0  0  0  0  0  0  0  0
   34.8030   32.4083   -2.8813 H   0  0  0  0  0  0  0  0  0  0  0  0
   35.7301   31.9526    1.4527 C   0  0  0  0  0  0  0  0  0  0  0  0
   36.8331   31.4667    2.3985 C   0  0  0  0  0  0  0  0  0  0  0  0
   37.1307   30.1207    2.1460 O   0  0  0  0  0  0  0  0  0  0  0  0
   36.3370   29.5818    2.2888 H   0  0  0  0  0  0  0  0  0  0  0  0
   35.1947   35.2718   -6.9304 C   0  0  0  0  0  0  0  0  0  0  0  0
   34.6454   35.2143   -5.6356 C   0  0  0  0  0  0  0  0  0  0  0  0
   34.9965   34.1932   -4.7539 C   0  0  0  0  0  0  0  0  0  0  0  0
   35.9189   33.2019   -5.1334 C   0  0  0  0  0  0  0  0  0  0  0  0
   36.4599   33.2559   -6.4291 C   0  0  0  0  0  0  0  0  0  0  0  0
   36.1181   34.2731   -7.3288 C   0  0  0  0  0  0  0  0  0  0  0  0
   35.4500   37.5785   -7.8808 C   0  0  0  0  0  0  0  0  0  0  0  0
   34.8356   36.2950   -7.8217 O   0  0  0  0  0  0  0  0  0  0  0  0
   36.7291   34.2241   -8.5954 O   0  0  0  0  0  0  0  0  0  0  0  0
   37.9492   34.8547   -8.9699 C   0  0  0  0  0  0  0  0  0  0  0  0
 33 34  1  0  0  0
 34 27  1  0  0  0
 27 28  2  0  0  0
 28 29  1  0  0  0
 29 30  2  0  0  0
 30 31  1  0  0  0
 31 32  2  0  0  0
 32 35  1  0  0  0
 35 36  1  0  0  0
  1 30  1  0  0  0
  1 16  1  0  0  0
 16 17  1  0  0  0
 17 18  1  0  0  0
 18 19  1  0  0  0
 19 23  1  0  0  0
 23 24  1  0  0  0
 24 25  1  0  0  0
 19 20  1  0  0  0
 20 21  1  0  0  0
  1  2  1  0  0  0
  2  3  1  0  0  0
  3  4  1  0  0  0
  4  5  1  0  0  0
  5  6  1  0  0  0
  6  7  1  0  0  0
  7  8  1  0  0  0
  8  9  1  0  0  0
  9 10  1  0  0  0
 10 11  1  0  0  0
 11 12  1  0  0  0
 12 13  2  0  0  0
 12 14  1  0  0  0
 32 27  1  0  0  0
 21 16  1  0  0  0
 10  2  2  0  0  0
  8  3  2  0  0  0
 16 22  1  0  0  0
 25 26  1  0  0  0
 11 15  1  0  0  0
M  CHG 1  16   1
M  END
> <minimizedAffinity>
-7.49564

> <newdefault_CNNaffinity>
7.39222

> <newdefault_CNNscore>
0.687081

> <CNNaffinity_times_score>
5.079054

> <protein>
2v3d

$$$$
24821716


 37 41  0  0  0  0  0  0  0  0999 V2000
    3.1457   -4.6368   43.8117 N   0  0  0  0  0  0  0  0  0  0  0  0
    2.3981   -4.1874   44.9701 C   0  0  0  0  0  0  0  0  0  0  0  0
    1.1469   -4.3460   44.9949 O   0  0  0  0  0  0  0  0  0  0  0  0
    3.0525   -3.5846   46.1623 C   0  0  0  0  0  0  0  0  0  0  0  0
    2.5748   -3.9187   47.4426 C   0  0  0  0  0  0  0  0  0  0  0  0
    3.1944   -3.4109   48.5872 C   0  0  0  0  0  0  0  0  0  0  0  0
    4.2973   -2.5629   48.4696 C   0  0  0  0  0  0  0  0  0  0  0  0
    4.7665   -2.1991   47.2063 C   0  0  0  0  0  0  0  0  0  0  0  0
    4.1419   -2.6890   46.0526 C   0  0  0  0  0  0  0  0  0  0  0  0
    4.7509   -2.1572   44.4534 S   0  0  0  0  0  0  0  0  0  0  0  0
    5.4322   -3.7833   44.1663 C   0  0  0  0  0  0  0  0  0  0  0  0
    6.8054   -4.0026   44.2924 C   0  0  0  0  0  0  0  0  0  0  0  0
    7.3316   -5.2823   44.1061 C   0  0  0  0  0  0  0  0  0  0  0  0
    6.4882   -6.3606   43.7766 C   0  0  0  0  0  0  0  0  0  0  0  0
    5.1030   -6.1324   43.6731 C   0  0  0  0  0  0  0  0  0  0  0  0
    4.5700   -4.8503   43.8760 C   0  0  0  0  0  0  0  0  0  0  0  0
    7.0313   -7.7288   43.5858 C   0  0  0  0  0  0  0  0  0  0  0  0
    6.4925   -8.6984   44.1882 O   0  0  0  0  0  0  0  0  0  0  0  0
    8.1481   -7.9729   42.7148 N   0  0  0  0  0  0  0  0  0  0  0  0
    8.4597   -7.2560   42.1164 H   0  0  0  0  0  0  0  0  0  0  0  0
    8.8314   -9.2681   42.7008 C   0  0  0  0  0  0  0  0  0  0  0  0
    9.0528   -9.7730   41.2614 C   0  0  0  0  0  0  0  0  0  0  0  0
   10.3874   -9.4010   40.7264 N   0  0  0  0  0  0  0  0  0  0  0  0
   11.3613   -9.3097   41.8372 C   0  0  0  0  0  0  0  0  0  0  0  0
   12.8032   -9.2294   41.2968 C   0  0  0  0  0  0  0  0  0  0  0  0
   13.1742  -10.2588   40.3844 O   0  0  0  0  0  0  0  0  0  0  0  0
   12.1037  -11.1204   40.0423 C   0  0  0  0  0  0  0  0  0  0  0  0
   10.8388  -10.3359   39.6530 C   0  0  0  0  0  0  0  0  0  0  0  0
   10.3179   -8.4840   40.2852 H   0  0  0  0  0  0  0  0  0  0  0  0
    2.4391   -4.9428   42.5594 C   0  0  0  0  0  0  0  0  0  0  0  0
    0.5419   -0.8236   40.3246 C   0  0  0  0  0  0  0  0  0  0  0  0
    1.6645   -1.7962   40.5346 C   0  0  0  0  0  0  0  0  0  0  0  0
    2.8845   -1.6040   39.8686 C   0  0  0  0  0  0  0  0  0  0  0  0
    3.9427   -2.4950   40.0666 C   0  0  0  0  0  0  0  0  0  0  0  0
    3.7913   -3.5838   40.9290 C   0  0  0  0  0  0  0  0  0  0  0  0
    2.5744   -3.7937   41.5967 C   0  0  0  0  0  0  0  0  0  0  0  0
    1.5130   -2.8941   41.3986 C   0  0  0  0  0  0  0  0  0  0  0  0
 31 32  1  0  0  0
 32 33  2  0  0  0
 33 34  1  0  0  0
 34 35  2  0  0  0
 35 36  1  0  0  0
 36 30  1  0  0  0
 30  1  1  0  0  0
  1  2  1  0  0  0
  2  3  2  0  0  0
  2  4  1  0  0  0
  4  5  2  0  0  0
  5  6  1  0  0  0
  6  7  2  0  0  0
  7  8  1  0  0  0
  8  9  2  0  0  0
  9 10  1  0  0  0
 10 11  1  0  0  0
 11 12  2  0  0  0
 12 13  1  0  0  0
 13 14  2  0  0  0
 14 15  1  0  0  0
 15 16  2  0  0  0
 14 17  1  0  0  0
 17 18  2  0  0  0
 17 19  1  0  0  0
 19 21  1  0  0  0
 21 22  1  0  0  0
 22 23  1  0  0  0
 23 24  1  0  0  0
 24 25  1  0  0  0
 25 26  1  0  0  0
 26 27  1  0  0  0
 27 28  1  0  0  0
 36 37  2  0  0  0
 37 32  1  0  0  0
 16  1  1  0  0  0
  9  4  1  0  0  0
 16 11  1  0  0  0
 28 23  1  0  0  0
 19 20  1  0  0  0
 23 29  1  0  0  0
M  CHG 1  23   1
M  END
> <minimizedAffinity>
-8.28719

> <newdefault_CNNaffinity>
6.69396

> <newdefault_CNNscore>
0.405725

> <CNNaffinity_times_score>
2.715907

> <protein>
3rik

$$$$
24824679


 40 44  0  0  0  0  0  0  0  0999 V2000
    4.0213   -2.9579   43.7012 C   0  0  0  0  0  0  0  0  0  0  0  0
    4.0298   -4.4978   43.7678 C   0  0  0  0  0  0  0  0  0  0  0  0
    5.0928   -4.9687   44.7726 C   0  0  0  0  0  0  0  0  0  0  0  0
    4.8745   -4.3112   46.1096 C   0  0  0  0  0  0  0  0  0  0  0  0
    4.4417   -3.0426   46.1740 C   0  0  0  0  0  0  0  0  0  0  0  0
    4.0874   -2.3525   45.0036 O   0  0  0  0  0  0  0  0  0  0  0  0
    4.3574   -2.3280   47.4614 C   0  0  0  0  0  0  0  0  0  0  0  0
    3.8807   -2.9205   48.4662 O   0  0  0  0  0  0  0  0  0  0  0  0
    4.8237   -0.9795   47.5990 N   0  0  0  0  0  0  0  0  0  0  0  0
    3.8739    0.0979   47.8918 C   0  0  0  0  0  0  0  0  0  0  0  0
    4.5999    1.2962   48.5205 C   0  0  0  0  0  0  0  0  0  0  0  0
    5.6363    0.8189   49.4661 N   0  0  0  0  0  0  0  0  0  0  0  0
    6.7309    0.1001   48.7557 C   0  0  0  0  0  0  0  0  0  0  0  0
    6.2534   -0.6794   47.5073 C   0  0  0  0  0  0  0  0  0  0  0  0
    5.1814    0.1666   50.1048 H   0  0  0  0  0  0  0  0  0  0  0  0
    6.2012    1.9421   50.2530 C   0  0  0  0  0  0  0  0  0  0  0  0
    6.5320    1.5418   51.6749 C   0  0  0  0  0  0  0  0  0  0  0  0
    5.9114    0.4248   52.2608 C   0  0  0  0  0  0  0  0  0  0  0  0
    6.2113    0.0608   53.5786 C   0  0  0  0  0  0  0  0  0  0  0  0
    7.1248    0.8099   54.3220 C   0  0  0  0  0  0  0  0  0  0  0  0
    7.7516    1.9178   53.7448 C   0  0  0  0  0  0  0  0  0  0  0  0
    7.4630    2.2814   52.4244 C   0  0  0  0  0  0  0  0  0  0  0  0
    5.1012   -6.4805   44.9001 C   0  0  0  0  0  0  0  0  0  0  0  0
    5.8479   -7.2818   44.0121 C   0  0  0  0  0  0  0  0  0  0  0  0
    5.8563   -8.6737   44.1506 C   0  0  0  0  0  0  0  0  0  0  0  0
    5.1233   -9.2789   45.1757 C   0  0  0  0  0  0  0  0  0  0  0  0
    5.1473  -11.1780   45.3694 Br  0  0  0  0  0  0  0  0  0  0  0  0
    4.3758   -8.4943   46.0595 C   0  0  0  0  0  0  0  0  0  0  0  0
    4.3648   -7.1027   45.9250 C   0  0  0  0  0  0  0  0  0  0  0  0
    2.9105   -2.4879   42.9520 O   0  0  0  0  0  0  0  0  0  0  0  0
    3.0289   -2.7690   41.5682 C   0  0  0  0  0  0  0  0  0  0  0  0
   -0.2318   -1.0250   39.3232 C   0  0  0  0  0  0  0  0  0  0  0  0
   -0.4737   -2.0424   40.2608 C   0  0  0  0  0  0  0  0  0  0  0  0
    0.5815   -2.5912   40.9958 C   0  0  0  0  0  0  0  0  0  0  0  0
    1.8946   -2.1273   40.8116 C   0  0  0  0  0  0  0  0  0  0  0  0
    2.1394   -1.1314   39.8471 C   0  0  0  0  0  0  0  0  0  0  0  0
    1.0820   -0.5754   39.1217 C   0  0  0  0  0  0  0  0  0  0  0  0
   -0.8658    0.0980   37.3237 O   0  0  0  0  0  0  0  0  0  0  0  0
   -1.3585   -0.4252   38.5278 C   0  0  0  0  0  0  0  0  0  0  0  0
   -1.5968    0.4831   36.8155 H   0  0  0  0  0  0  0  0  0  0  0  0
 38 39  1  0  0  0
 39 32  1  0  0  0
 32 33  2  0  0  0
 33 34  1  0  0  0
 34 35  2  0  0  0
 35 31  1  0  0  0
 31 30  1  0  0  0
  1 30  1  0  0  0
  1  2  1  0  0  0
  2  3  1  0  0  0
  3  4  1  0  0  0
  4  5  2  0  0  0
  5  6  1  0  0  0
  5  7  1  0  0  0
  7  8  2  0  0  0
  7  9  1  0  0  0
  9 10  1  0  0  0
 10 11  1  0  0  0
 11 12  1  0  0  0
 12 16  1  0  0  0
 16 17  1  0  0  0
 17 18  2  0  0  0
 18 19  1  0  0  0
 19 20  2  0  0  0
 20 21  1  0  0  0
 21 22  2  0  0  0
 12 13  1  0  0  0
 13 14  1  0  0  0
  3 23  1  0  0  0
 23 24  2  0  0  0
 24 25  1  0  0  0
 25 26  2  0  0  0
 26 27  1  0  0  0
 26 28  1  0  0  0
 28 29  2  0  0  0
 35 36  1  0  0  0
 36 37  2  0  0  0
 37 32  1  0  0  0
  6  1  1  0  0  0
 14  9  1  0  0  0
 22 17  1  0  0  0
 29 23  1  0  0  0
 38 40  1  0  0  0
 12 15  1  0  0  0
M  CHG 1  12   1
M  END
> <minimizedAffinity>
-7.04565

> <newdefault_CNNaffinity>
5.73123

> <newdefault_CNNscore>
0.31128

> <CNNaffinity_times_score>
1.7840173

> <protein>
3rik

$$$$
24824947


 43 47  0  0  0  0  0  0  0  0999 V2000
   35.4608   33.4921   -3.4380 C   0  0  0  0  0  0  0  0  0  0  0  0
   35.9094   34.9573   -3.6259 C   0  0  0  0  0  0  0  0  0  0  0  0
   37.3393   35.0067   -4.1848 C   0  0  0  0  0  0  0  0  0  0  0  0
   37.4304   34.1961   -5.4485 C   0  0  0  0  0  0  0  0  0  0  0  0
   36.6896   33.0870   -5.5925 C   0  0  0  0  0  0  0  0  0  0  0  0
   35.7886   32.7019   -4.5875 O   0  0  0  0  0  0  0  0  0  0  0  0
   36.7889   32.2538   -6.8065 C   0  0  0  0  0  0  0  0  0  0  0  0
   36.9842   32.7957   -7.9312 O   0  0  0  0  0  0  0  0  0  0  0  0
   36.6389   30.8265   -6.7228 N   0  0  0  0  0  0  0  0  0  0  0  0
   36.0172   30.0798   -7.8158 C   0  0  0  0  0  0  0  0  0  0  0  0
   37.1031   29.3193   -8.5838 C   0  0  0  0  0  0  0  0  0  0  0  0
   37.9129   28.4701   -7.6683 N   0  0  0  0  0  0  0  0  0  0  0  0
   38.5277   29.2875   -6.5938 C   0  0  0  0  0  0  0  0  0  0  0  0
   37.4606   30.0477   -5.7946 C   0  0  0  0  0  0  0  0  0  0  0  0
   37.2861   27.7844   -7.2472 H   0  0  0  0  0  0  0  0  0  0  0  0
   38.9809   27.7627   -8.4186 C   0  0  0  0  0  0  0  0  0  0  0  0
   38.5909   26.3416   -8.7600 C   0  0  0  0  0  0  0  0  0  0  0  0
   39.3449   25.5972   -9.6843 C   0  0  0  0  0  0  0  0  0  0  0  0
   38.9998   24.2722   -9.9702 C   0  0  0  0  0  0  0  0  0  0  0  0
   37.9085   23.6793   -9.3264 C   0  0  0  0  0  0  0  0  0  0  0  0
   37.1536   24.4119   -8.4075 C   0  0  0  0  0  0  0  0  0  0  0  0
   37.4907   25.7398   -8.1253 C   0  0  0  0  0  0  0  0  0  0  0  0
   37.7868   36.4360   -4.4193 C   0  0  0  0  0  0  0  0  0  0  0  0
   38.1235   37.2552   -3.3283 C   0  0  0  0  0  0  0  0  0  0  0  0
   38.5526   38.5699   -3.5332 C   0  0  0  0  0  0  0  0  0  0  0  0
   38.6280   39.1005   -4.8307 C   0  0  0  0  0  0  0  0  0  0  0  0
   38.3146   38.2747   -5.9256 C   0  0  0  0  0  0  0  0  0  0  0  0
   37.8880   36.9598   -5.7217 C   0  0  0  0  0  0  0  0  0  0  0  0
   39.1584   40.4950   -5.0564 C   0  0  0  0  0  0  0  0  0  0  0  0
   38.2289   41.2683   -5.7333 F   0  0  0  0  0  0  0  0  0  0  0  0
   40.3192   40.4249   -5.8085 F   0  0  0  0  0  0  0  0  0  0  0  0
   39.4370   41.1116   -3.8495 F   0  0  0  0  0  0  0  0  0  0  0  0
   34.0568   33.4286   -3.2602 O   0  0  0  0  0  0  0  0  0  0  0  0
   33.6679   32.2100   -2.6572 C   0  0  0  0  0  0  0  0  0  0  0  0
   36.0016   31.6434    0.9403 C   0  0  0  0  0  0  0  0  0  0  0  0
   36.0511   30.6975   -0.1025 C   0  0  0  0  0  0  0  0  0  0  0  0
   35.2884   30.8813   -1.2598 C   0  0  0  0  0  0  0  0  0  0  0  0
   34.4702   32.0151   -1.3996 C   0  0  0  0  0  0  0  0  0  0  0  0
   34.4245   32.9623   -0.3654 C   0  0  0  0  0  0  0  0  0  0  0  0
   35.1826   32.7762    0.7936 C   0  0  0  0  0  0  0  0  0  0  0  0
   37.3661   30.2050    2.3405 O   0  0  0  0  0  0  0  0  0  0  0  0
   36.8023   31.4837    2.2127 C   0  0  0  0  0  0  0  0  0  0  0  0
   37.8673   30.1540    3.1693 H   0  0  0  0  0  0  0  0  0  0  0  0
 41 42  1  0  0  0
 42 35  1  0  0  0
 35 36  2  0  0  0
 36 37  1  0  0  0
 37 38  2  0  0  0
 38 34  1  0  0  0
 34 33  1  0  0  0
  1 33  1  0  0  0
  1  2  1  0  0  0
  2  3  1  0  0  0
  3  4  1  0  0  0
  4  5  2  0  0  0
  5  6  1  0  0  0
  5  7  1  0  0  0
  7  8  2  0  0  0
  7  9  1  0  0  0
  9 10  1  0  0  0
 10 11  1  0  0  0
 11 12  1  0  0  0
 12 16  1  0  0  0
 16 17  1  0  0  0
 17 18  2  0  0  0
 18 19  1  0  0  0
 19 20  2  0  0  0
 20 21  1  0  0  0
 21 22  2  0  0  0
 12 13  1  0  0  0
 13 14  1  0  0  0
  3 23  1  0  0  0
 23 24  2  0  0  0
 24 25  1  0  0  0
 25 26  2  0  0  0
 26 27  1  0  0  0
 27 28  2  0  0  0
 26 29  1  0  0  0
 29 30  1  0  0  0
 29 31  1  0  0  0
 29 32  1  0  0  0
 38 39  1  0  0  0
 39 40  2  0  0  0
 40 35  1  0  0  0
  6  1  1  0  0  0
 14  9  1  0  0  0
 22 17  1  0  0  0
 28 23  1  0  0  0
 41 43  1  0  0  0
 12 15  1  0  0  0
M  CHG 1  12   1
M  END
> <minimizedAffinity>
-9.43108

> <newdefault_CNNaffinity>
6.44062

> <newdefault_CNNscore>
0.302965

> <CNNaffinity_times_score>
1.9512824

> <protein>
2v3e

$$$$
24832189


 23 26  0  0  0  0  0  0  0  0999 V2000
    6.0940   -2.6769   44.8620 C   0  0  0  0  0  0  0  0  0  0  0  0
    5.2341   -2.2748   43.8860 N   0  0  0  0  0  0  0  0  0  0  0  0
    4.7061   -3.1394   42.9828 C   0  0  0  0  0  0  0  0  0  0  0  0
    5.0369   -4.4534   43.0365 N   0  0  0  0  0  0  0  0  0  0  0  0
    5.8821   -4.9281   43.9858 C   0  0  0  0  0  0  0  0  0  0  0  0
    6.1902   -6.2929   44.0118 C   0  0  0  0  0  0  0  0  0  0  0  0
    7.0419   -6.8008   44.9932 C   0  0  0  0  0  0  0  0  0  0  0  0
    7.5844   -5.9498   45.9568 C   0  0  0  0  0  0  0  0  0  0  0  0
    7.2866   -4.5835   45.9421 C   0  0  0  0  0  0  0  0  0  0  0  0
    6.4395   -4.0491   44.9470 C   0  0  0  0  0  0  0  0  0  0  0  0
    3.7839   -2.6534   41.9472 C   0  0  0  0  0  0  0  0  0  0  0  0
    4.1067   -2.3924   40.6201 C   0  0  0  0  0  0  0  0  0  0  0  0
    3.0178   -1.9379   39.8662 C   0  0  0  0  0  0  0  0  0  0  0  0
    1.8380   -1.8393   40.5925 C   0  0  0  0  0  0  0  0  0  0  0  0
    2.1504   -2.3180   42.1740 S   0  0  0  0  0  0  0  0  0  0  0  0
    6.6313   -1.6870   45.7599 N   0  0  0  0  0  0  0  0  0  0  0  0
    7.6056   -1.6239   45.8860 H   0  0  0  0  0  0  0  0  0  0  0  0
    5.7486   -0.7735   46.4873 C   0  0  0  0  0  0  0  0  0  0  0  0
    6.0218   -0.8229   47.9596 C   0  0  0  0  0  0  0  0  0  0  0  0
    6.1613    0.2721   48.8024 C   0  0  0  0  0  0  0  0  0  0  0  0
    6.4164   -0.0863   50.1316 C   0  0  0  0  0  0  0  0  0  0  0  0
    6.4798   -1.4587   50.3372 C   0  0  0  0  0  0  0  0  0  0  0  0
    6.2183   -2.2272   48.8640 S   0  0  0  0  0  0  0  0  0  0  0  0
 18 16  1  0  0  0
 16  1  1  0  0  0
  1  2  2  0  0  0
  2  3  1  0  0  0
  3  4  2  0  0  0
  4  5  1  0  0  0
  5  6  2  0  0  0
  6  7  1  0  0  0
  7  8  2  0  0  0
  8  9  1  0  0  0
  9 10  2  0  0  0
  3 11  1  0  0  0
 11 12  2  0  0  0
 12 13  1  0  0  0
 13 14  2  0  0  0
 14 15  1  0  0  0
 18 19  1  0  0  0
 19 20  2  0  0  0
 20 21  1  0  0  0
 21 22  2  0  0  0
 22 23  1  0  0  0
 10  1  1  0  0  0
 10  5  1  0  0  0
 15 11  1  0  0  0
 23 19  1  0  0  0
 16 17  1  0  0  0
M  END
> <minimizedAffinity>
-5.88613

> <newdefault_CNNaffinity>
5.17555

> <newdefault_CNNscore>
0.477408

> <CNNaffinity_times_score>
2.470849

> <protein>
3rik

$$$$
26657894


 40 43  0  0  0  0  0  0  0  0999 V2000
   35.8101   32.0261   -4.9337 C   0  0  0  0  0  0  0  0  0  0  0  0
   36.3253   32.9106   -4.0373 C   0  0  0  0  0  0  0  0  0  0  0  0
   36.5932   32.5138   -2.6805 N   0  0  0  0  0  0  0  0  0  0  0  0
   36.2813   31.3404   -2.2180 C   0  0  0  0  0  0  0  0  0  0  0  0
   36.5411   31.0121   -0.8511 N   0  0  0  0  0  0  0  0  0  0  0  0
   35.6306   30.3889   -3.0614 N   0  0  0  0  0  0  0  0  0  0  0  0
   35.4341   30.6154   -4.4958 C   0  0  0  0  0  0  0  0  0  0  0  0
   37.0308   33.1578   -2.0779 H   0  0  0  0  0  0  0  0  0  0  0  0
   36.9893   31.6639   -0.2649 H   0  0  0  0  0  0  0  0  0  0  0  0
   36.2718   30.1343   -0.4959 H   0  0  0  0  0  0  0  0  0  0  0  0
   35.3021   29.5500   -2.6644 H   0  0  0  0  0  0  0  0  0  0  0  0
   36.2212   29.5754   -5.2639 C   0  0  0  0  0  0  0  0  0  0  0  0
   35.5965   28.8049   -6.2595 C   0  0  0  0  0  0  0  0  0  0  0  0
   36.2960   27.7790   -6.8998 C   0  0  0  0  0  0  0  0  0  0  0  0
   37.6187   27.4905   -6.5428 C   0  0  0  0  0  0  0  0  0  0  0  0
   38.2616   28.2909   -5.5809 C   0  0  0  0  0  0  0  0  0  0  0  0
   37.5699   29.3272   -4.9485 C   0  0  0  0  0  0  0  0  0  0  0  0
   38.2407   26.3839   -7.1383 O   0  0  0  0  0  0  0  0  0  0  0  0
   38.0190   25.9620   -8.4820 C   0  0  0  0  0  0  0  0  0  0  0  0
   39.2283   26.2822   -9.3150 C   0  0  0  0  0  0  0  0  0  0  0  0
   39.8413   25.2986  -10.1070 C   0  0  0  0  0  0  0  0  0  0  0  0
   40.9464   25.6216  -10.9003 C   0  0  0  0  0  0  0  0  0  0  0  0
   41.4554   26.9325  -10.9174 C   0  0  0  0  0  0  0  0  0  0  0  0
   40.8406   27.9131  -10.1195 C   0  0  0  0  0  0  0  0  0  0  0  0
   39.7338   27.5917   -9.3300 C   0  0  0  0  0  0  0  0  0  0  0  0
   42.6159   27.2710  -11.7729 C   0  0  0  0  0  0  0  0  0  0  0  0
   43.7172   27.5882  -11.2488 O   0  0  0  0  0  0  0  0  0  0  0  0
   42.4832   27.2631  -13.1646 O   0  0  0  0  0  0  0  0  0  0  0  0
   41.5614   28.0984  -13.8536 C   0  0  0  0  0  0  0  0  0  0  0  0
   36.6136   34.3208   -4.3868 C   0  0  0  0  0  0  0  0  0  0  0  0
   37.9444   34.7634   -4.4765 C   0  0  0  0  0  0  0  0  0  0  0  0
   38.2263   36.0980   -4.7863 C   0  0  0  0  0  0  0  0  0  0  0  0
   37.1794   37.0061   -4.9816 C   0  0  0  0  0  0  0  0  0  0  0  0
   35.8521   36.5791   -4.8686 C   0  0  0  0  0  0  0  0  0  0  0  0
   35.5677   35.2409   -4.5716 C   0  0  0  0  0  0  0  0  0  0  0  0
   35.6050   32.3719   -6.3694 C   0  0  0  0  0  0  0  0  0  0  0  0
   36.5495   32.2235   -7.1897 O   0  0  0  0  0  0  0  0  0  0  0  0
   34.3787   32.8816   -6.8061 O   0  0  0  0  0  0  0  0  0  0  0  0
   33.2553   31.1187   -7.9760 C   0  0  0  0  0  0  0  0  0  0  0  0
   33.1781   32.1186   -6.8354 C   0  0  0  0  0  0  0  0  0  0  0  0
 39 40  1  0  0  0
 40 38  1  0  0  0
 38 36  1  0  0  0
 36 37  2  0  0  0
 36  1  1  0  0  0
  1  2  2  0  0  0
  2  3  1  0  0  0
  3  4  2  0  0  0
  4  5  1  0  0  0
  4  6  1  0  0  0
  6  7  1  0  0  0
  7 12  1  0  0  0
 12 13  2  0  0  0
 13 14  1  0  0  0
 14 15  2  0  0  0
 15 18  1  0  0  0
 18 19  1  0  0  0
 19 20  1  0  0  0
 20 21  2  0  0  0
 21 22  1  0  0  0
 22 23  2  0  0  0
 23 24  1  0  0  0
 24 25  2  0  0  0
 23 26  1  0  0  0
 26 27  2  0  0  0
 26 28  1  0  0  0
 28 29  1  0  0  0
 15 16  1  0  0  0
 16 17  2  0  0  0
  2 30  1  0  0  0
 30 31  2  0  0  0
 31 32  1  0  0  0
 32 33  2  0  0  0
 33 34  1  0  0  0
 34 35  2  0  0  0
  7  1  1  0  0  0
 17 12  1  0  0  0
 25 20  1  0  0  0
 35 30  1  0  0  0
  3  8  1  0  0  0
  5  9  1  0  0  0
  5 10  1  0  0  0
  6 11  1  0  0  0
M  CHG 1   3   1
M  END
> <minimizedAffinity>
-6.80672

> <newdefault_CNNaffinity>
5.97201

> <newdefault_CNNscore>
0.244621

> <CNNaffinity_times_score>
1.4608791

> <protein>
2v3e

$$$$
26658843


 24 26  0  0  0  0  0  0  0  0999 V2000
    1.9921   -6.8292   42.6376 C   0  0  0  0  0  0  0  0  0  0  0  0
    3.1669   -6.2792   42.6149 N   0  0  0  0  0  0  0  0  0  0  0  0
   -0.1077   -9.3000   40.6865 C   0  0  0  0  0  0  0  0  0  0  0  0
    0.2997   -8.3449   41.6279 C   0  0  0  0  0  0  0  0  0  0  0  0
    1.6072   -7.8379   41.6307 C   0  0  0  0  0  0  0  0  0  0  0  0
    2.5217   -8.2988   40.6709 C   0  0  0  0  0  0  0  0  0  0  0  0
    2.1315   -9.2499   39.7277 C   0  0  0  0  0  0  0  0  0  0  0  0
    0.8246   -9.7580   39.7231 C   0  0  0  0  0  0  0  0  0  0  0  0
    0.4710  -10.7069   38.7658 O   0  0  0  0  0  0  0  0  0  0  0  0
    1.1028  -10.9964   38.1374 H   0  0  0  0  0  0  0  0  0  0  0  0
   -2.5381   -9.2457   40.0111 C   0  0  0  0  0  0  0  0  0  0  0  0
   -1.4397   -9.7448   40.7659 O   0  0  0  0  0  0  0  0  0  0  0  0
    3.5842   -5.3153   43.5509 N   0  0  0  0  0  0  0  0  0  0  0  0
    4.1494   -5.5133   44.7603 C   0  0  0  0  0  0  0  0  0  0  0  0
    4.3967   -7.1117   45.5611 S   0  0  0  0  0  0  0  0  0  0  0  0
    4.6630   -4.3684   45.2473 N   0  0  0  0  0  0  0  0  0  0  0  0
    4.4424   -3.4262   44.3406 N   0  0  0  0  0  0  0  0  0  0  0  0
    3.7999   -4.0072   43.3066 C   0  0  0  0  0  0  0  0  0  0  0  0
    3.4277   -3.2846   42.0685 C   0  0  0  0  0  0  0  0  0  0  0  0
    2.1159   -2.8031   41.9105 C   0  0  0  0  0  0  0  0  0  0  0  0
    1.7463   -2.1239   40.7455 C   0  0  0  0  0  0  0  0  0  0  0  0
    2.6781   -1.9269   39.7240 C   0  0  0  0  0  0  0  0  0  0  0  0
    3.9790   -2.4159   39.8624 C   0  0  0  0  0  0  0  0  0  0  0  0
    4.3535   -3.0963   41.0254 C   0  0  0  0  0  0  0  0  0  0  0  0
 11 12  1  0  0  0
 12  3  1  0  0  0
  3  4  2  0  0  0
  4  5  1  0  0  0
  5  1  1  0  0  0
  1  2  2  0  0  0
  2 13  1  0  0  0
 13 14  1  0  0  0
 14 15  1  0  0  0
 14 16  2  0  0  0
 16 17  1  0  0  0
 17 18  2  0  0  0
 18 19  1  0  0  0
 19 20  2  0  0  0
 20 21  1  0  0  0
 21 22  2  0  0  0
 22 23  1  0  0  0
 23 24  2  0  0  0
  5  6  2  0  0  0
  6  7  1  0  0  0
  7  8  2  0  0  0
  8  9  1  0  0  0
  8  3  1  0  0  0
 18 13  1  0  0  0
 24 19  1  0  0  0
  9 10  1  0  0  0
M  CHG 1  15  -1
M  END
> <minimizedAffinity>
-5.98147

> <newdefault_CNNaffinity>
4.78403

> <newdefault_CNNscore>
0.342478

> <CNNaffinity_times_score>
1.638425

> <protein>
3rik

$$$$
26659231


 26 29  0  0  0  0  0  0  0  0999 V2000
   -7.4496   -8.3713   39.5035 C   0  0  0  0  0  0  0  0  0  0  0  0
   -8.4180   -8.9660   40.2494 N   0  0  0  0  0  0  0  0  0  0  0  0
   -9.6374   -8.3938   40.4398 C   0  0  0  0  0  0  0  0  0  0  0  0
   -9.9064   -7.1905   39.8664 N   0  0  0  0  0  0  0  0  0  0  0  0
   -8.9894   -6.5536   39.0945 C   0  0  0  0  0  0  0  0  0  0  0  0
   -9.3097   -5.3263   38.5029 C   0  0  0  0  0  0  0  0  0  0  0  0
   -8.3829   -4.6838   37.6783 C   0  0  0  0  0  0  0  0  0  0  0  0
   -7.1381   -5.2688   37.4339 C   0  0  0  0  0  0  0  0  0  0  0  0
   -6.8073   -6.4934   38.0224 C   0  0  0  0  0  0  0  0  0  0  0  0
   -7.7223   -7.1385   38.8755 C   0  0  0  0  0  0  0  0  0  0  0  0
  -10.6621   -9.0737   41.2697 C   0  0  0  0  0  0  0  0  0  0  0  0
  -10.8615  -10.4623   41.1701 C   0  0  0  0  0  0  0  0  0  0  0  0
  -11.8320  -11.0819   41.9613 C   0  0  0  0  0  0  0  0  0  0  0  0
  -12.5810  -10.3468   42.8241 N   0  0  0  0  0  0  0  0  0  0  0  0
  -12.4140   -9.0039   42.9448 C   0  0  0  0  0  0  0  0  0  0  0  0
  -11.4550   -8.3434   42.1731 C   0  0  0  0  0  0  0  0  0  0  0  0
   -6.1821   -9.0284   39.3774 N   0  0  0  0  0  0  0  0  0  0  0  0
   -5.5888   -8.7947   38.6273 H   0  0  0  0  0  0  0  0  0  0  0  0
   -5.7543  -10.0408   40.3442 C   0  0  0  0  0  0  0  0  0  0  0  0
   -4.2498   -9.9324   40.6223 C   0  0  0  0  0  0  0  0  0  0  0  0
   -3.9333   -8.8217   41.5925 C   0  0  0  0  0  0  0  0  0  0  0  0
   -3.3638   -7.6196   41.1380 C   0  0  0  0  0  0  0  0  0  0  0  0
   -3.0711   -6.5928   42.0411 C   0  0  0  0  0  0  0  0  0  0  0  0
   -3.3481   -6.7556   43.4011 C   0  0  0  0  0  0  0  0  0  0  0  0
   -3.9197   -7.9450   43.8605 C   0  0  0  0  0  0  0  0  0  0  0  0
   -4.2137   -8.9746   42.9612 C   0  0  0  0  0  0  0  0  0  0  0  0
 19 20  1  0  0  0
 20 21  1  0  0  0
 21 22  2  0  0  0
 22 23  1  0  0  0
 23 24  2  0  0  0
 24 25  1  0  0  0
 25 26  2  0  0  0
 19 17  1  0  0  0
 17  1  1  0  0  0
  1  2  2  0  0  0
  2  3  1  0  0  0
  3  4  2  0  0  0
  4  5  1  0  0  0
  5  6  2  0  0  0
  6  7  1  0  0  0
  7  8  2  0  0  0
  8  9  1  0  0  0
  9 10  2  0  0  0
  3 11  1  0  0  0
 11 12  2  0  0  0
 12 13  1  0  0  0
 13 14  2  0  0  0
 14 15  1  0  0  0
 15 16  2  0  0  0
 26 21  1  0  0  0
 10  1  1  0  0  0
 10  5  1  0  0  0
 16 11  1  0  0  0
 17 18  1  0  0  0
M  END
> <minimizedAffinity>
-7.36689

> <newdefault_CNNaffinity>
5.97061

> <newdefault_CNNscore>
0.461608

> <CNNaffinity_times_score>
2.7560813

> <protein>
3ril

$$$$
26660203


 32 36  0  0  0  0  0  0  0  0999 V2000
  -11.1926   -6.6899   41.3014 C   0  0  0  0  0  0  0  0  0  0  0  0
  -11.5061   -7.8713   40.3533 C   0  0  0  0  0  0  0  0  0  0  0  0
  -12.9475   -8.3465   40.6252 C   0  0  0  0  0  0  0  0  0  0  0  0
  -10.5268   -9.0445   40.6116 C   0  0  0  0  0  0  0  0  0  0  0  0
   -9.1120   -8.7615   40.1550 C   0  0  0  0  0  0  0  0  0  0  0  0
   -8.8474   -7.9031   39.1472 C   0  0  0  0  0  0  0  0  0  0  0  0
   -7.4070   -7.6777   38.6815 C   0  0  0  0  0  0  0  0  0  0  0  0
   -7.3201   -6.5519   37.6875 C   0  0  0  0  0  0  0  0  0  0  0  0
   -8.3850   -5.9223   37.2034 C   0  0  0  0  0  0  0  0  0  0  0  0
   -9.7211   -6.2325   37.6000 N   0  0  0  0  0  0  0  0  0  0  0  0
   -9.9647   -7.1371   38.5047 C   0  0  0  0  0  0  0  0  0  0  0  0
  -11.3903   -7.4268   38.8775 C   0  0  0  0  0  0  0  0  0  0  0  0
   -7.9681   -4.9056   36.2416 C   0  0  0  0  0  0  0  0  0  0  0  0
   -8.7230   -4.0109   35.4854 C   0  0  0  0  0  0  0  0  0  0  0  0
   -8.0395   -3.1321   34.6258 C   0  0  0  0  0  0  0  0  0  0  0  0
   -6.6302   -3.1656   34.5405 C   0  0  0  0  0  0  0  0  0  0  0  0
   -5.8906   -4.0781   35.3141 C   0  0  0  0  0  0  0  0  0  0  0  0
   -6.5921   -4.9371   36.1577 C   0  0  0  0  0  0  0  0  0  0  0  0
   -6.1258   -5.9747   37.0657 C   0  0  0  0  0  0  0  0  0  0  0  0
   -4.9307   -6.3124   37.2734 O   0  0  0  0  0  0  0  0  0  0  0  0
   -8.0639   -9.4350   40.7830 O   0  0  0  0  0  0  0  0  0  0  0  0
   -8.2430  -10.0316   41.4829 H   0  0  0  0  0  0  0  0  0  0  0  0
   -6.8157   -8.9414   38.0791 C   0  0  0  0  0  0  0  0  0  0  0  0
   -7.2502   -9.3707   36.8113 C   0  0  0  0  0  0  0  0  0  0  0  0
   -6.7290  -10.5380   36.2236 C   0  0  0  0  0  0  0  0  0  0  0  0
   -5.7639  -11.2796   36.9233 C   0  0  0  0  0  0  0  0  0  0  0  0
   -5.3300  -10.8659   38.1833 C   0  0  0  0  0  0  0  0  0  0  0  0
   -5.8486   -9.7071   38.7650 C   0  0  0  0  0  0  0  0  0  0  0  0
   -5.3980   -9.3267   40.0245 O   0  0  0  0  0  0  0  0  0  0  0  0
   -7.1759  -10.9695   34.9248 N   0  0  0  0  0  0  0  0  0  0  0  0
   -7.5752  -10.1410   34.0803 O   0  0  0  0  0  0  0  0  0  0  0  0
   -7.1701  -12.3046   34.5913 O   0  0  0  0  0  0  0  0  0  0  0  0
  1  2  1  0  0  0
  2  3  1  0  0  0
  2  4  1  0  0  0
  4  5  1  0  0  0
  5  6  2  0  0  0
  6  7  1  0  0  0
  7  8  1  0  0  0
  8  9  2  0  0  0
  9 10  1  0  0  0
 10 11  2  0  0  0
 11 12  1  0  0  0
  9 13  1  0  0  0
 13 14  2  0  0  0
 14 15  1  0  0  0
 15 16  2  0  0  0
 16 17  1  0  0  0
 17 18  2  0  0  0
 18 19  1  0  0  0
 19 20  2  0  0  0
  7 23  1  0  0  0
 23 24  2  0  0  0
 24 25  1  0  0  0
 25 26  2  0  0  0
 26 27  1  0  0  0
 27 28  2  0  0  0
 28 29  1  0  0  0
 25 30  1  0  0  0
 30 31  2  0  0  0
 30 32  1  0  0  0
  5 21  1  0  0  0
 12  2  1  0  0  0
 11  6  1  0  0  0
 19  8  1  0  0  0
 18 13  1  0  0  0
 28 23  1  0  0  0
 21 22  1  0  0  0
M  CHG 1  29  -1
M  CHG 1  30   1
M  CHG 1  32  -1
M  END
> <minimizedAffinity>
-7.64207

> <newdefault_CNNaffinity>
6.12596

> <newdefault_CNNscore>
0.273895

> <CNNaffinity_times_score>
1.6778698

> <protein>
3ril

$$$$
26661844


 24 26  0  0  0  0  0  0  0  0999 V2000
  -33.8313  -15.4749    0.7185 C   0  0  0  0  0  0  0  0  0  0  0  0
  -34.6533  -16.6483    1.1507 C   0  0  0  0  0  0  0  0  0  0  0  0
  -35.1076  -17.4299    0.2728 O   0  0  0  0  0  0  0  0  0  0  0  0
  -34.9871  -16.8624    2.5309 N   0  0  0  0  0  0  0  0  0  0  0  0
  -36.2022  -17.2556    2.9805 C   0  0  0  0  0  0  0  0  0  0  0  0
  -36.1851  -17.3618    4.3657 C   0  0  0  0  0  0  0  0  0  0  0  0
  -34.8973  -17.0529    4.7655 C   0  0  0  0  0  0  0  0  0  0  0  0
  -34.2853  -17.0932    6.0200 C   0  0  0  0  0  0  0  0  0  0  0  0
  -32.9140  -16.7974    6.0936 C   0  0  0  0  0  0  0  0  0  0  0  0
  -32.1835  -16.4992    4.9248 C   0  0  0  0  0  0  0  0  0  0  0  0
  -32.8172  -16.4897    3.6699 C   0  0  0  0  0  0  0  0  0  0  0  0
  -34.1913  -16.7547    3.6213 C   0  0  0  0  0  0  0  0  0  0  0  0
  -37.2861  -17.7750    5.1969 N   0  0  0  0  0  0  0  0  0  0  0  0
  -37.9294  -19.0440    4.9638 C   0  0  0  0  0  0  0  0  0  0  0  0
  -37.2681  -20.0018    4.4780 O   0  0  0  0  0  0  0  0  0  0  0  0
  -37.6638  -16.9536    6.3181 C   0  0  0  0  0  0  0  0  0  0  0  0
  -37.6163  -17.4642    7.6259 C   0  0  0  0  0  0  0  0  0  0  0  0
  -37.9779  -16.6601    8.7109 C   0  0  0  0  0  0  0  0  0  0  0  0
  -38.3839  -15.3385    8.4998 C   0  0  0  0  0  0  0  0  0  0  0  0
  -38.8361  -14.3306    9.8622 Cl  0  0  0  0  0  0  0  0  0  0  0  0
  -38.4248  -14.8201    7.2014 C   0  0  0  0  0  0  0  0  0  0  0  0
  -38.0642  -15.6224    6.1149 C   0  0  0  0  0  0  0  0  0  0  0  0
  -39.3861  -19.2477    5.2587 C   0  0  0  0  0  0  0  0  0  0  0  0
  -39.5866  -20.3598    6.6348 Cl  0  0  0  0  0  0  0  0  0  0  0  0
  1  2  1  0  0  0
  2  3  2  0  0  0
  2  4  1  0  0  0
  4  5  1  0  0  0
  5  6  2  0  0  0
  6 13  1  0  0  0
 13 14  1  0  0  0
 14 15  2  0  0  0
 14 23  1  0  0  0
 23 24  1  0  0  0
 13 16  1  0  0  0
 16 17  2  0  0  0
 17 18  1  0  0  0
 18 19  2  0  0  0
 19 20  1  0  0  0
 19 21  1  0  0  0
 21 22  2  0  0  0
  6  7  1  0  0  0
  7  8  2  0  0  0
  8  9  1  0  0  0
  9 10  2  0  0  0
 10 11  1  0  0  0
 11 12  2  0  0  0
 12  4  1  0  0  0
 22 16  1  0  0  0
 12  7  1  0  0  0
M  END
> <minimizedAffinity>
-6.25792

> <newdefault_CNNaffinity>
5.5182

> <newdefault_CNNscore>
0.324261

> <CNNaffinity_times_score>
1.789337

> <protein>
2xwd

$$$$
26662201


 17 16  0  0  0  0  0  0  0  0999 V2000
   34.0944   31.4292   -3.4484 C   0  0  0  0  0  0  0  0  0  0  0  0
   34.9186   30.1324   -3.3951 C   0  0  0  0  0  0  0  0  0  0  0  0
   36.2145   30.2163   -4.2180 C   0  0  0  0  0  0  0  0  0  0  0  0
   36.3370   29.0847   -5.2498 C   0  0  0  0  0  0  0  0  0  0  0  0
   35.1658   29.1152   -6.2396 C   0  0  0  0  0  0  0  0  0  0  0  0
   35.6446   29.5042   -7.6465 C   0  0  0  0  0  0  0  0  0  0  0  0
   34.8876   30.7144   -8.2160 C   0  0  0  0  0  0  0  0  0  0  0  0
   32.8431   31.9393   -7.3827 C   0  0  0  0  0  0  0  0  0  0  0  0
   34.3122   31.6220   -7.1186 C   0  0  0  0  0  0  0  0  0  0  0  0
   33.7708   31.9282   -2.0189 C   0  0  0  0  0  0  0  0  0  0  0  0
   34.4006   33.2316   -1.6305 N   0  0  0  0  0  0  0  0  0  0  0  0
   33.7381   33.7905   -0.4235 C   0  0  0  0  0  0  0  0  0  0  0  0
   34.1845   34.1712   -2.7639 C   0  0  0  0  0  0  0  0  0  0  0  0
   35.8659   33.0510   -1.3911 C   0  0  0  0  0  0  0  0  0  0  0  0
   36.1789   32.4367   -0.0848 C   0  0  0  0  0  0  0  0  0  0  0  0
   36.4346   31.9344    0.9808 C   0  0  0  0  0  0  0  0  0  0  0  0
   36.7435   31.3223    2.2728 C   0  0  0  0  0  0  0  0  0  0  0  0
  8  9  1  0  0  0
  9  7  1  0  0  0
  7  6  1  0  0  0
  6  5  1  0  0  0
  5  4  1  0  0  0
  4  3  1  0  0  0
  3  2  1  0  0  0
  2  1  1  0  0  0
  1 10  1  0  0  0
 10 11  1  0  0  0
 11 12  1  0  0  0
 11 13  1  0  0  0
 11 14  1  0  0  0
 14 15  1  0  0  0
 15 16  3  0  0  0
 16 17  1  0  0  0
M  CHG 1  11   1
M  END
> <minimizedAffinity>
-4.53802

> <newdefault_CNNaffinity>
5.00673

> <newdefault_CNNscore>
0.250125

> <CNNaffinity_times_score>
1.2523084

> <protein>
2v3d

$$$$
26664935


 22 24  0  0  0  0  0  0  0  0999 V2000
   34.5245   30.7876   -4.2331 C   0  0  0  0  0  0  0  0  0  0  0  0
   33.4209   31.6307   -4.4764 C   0  0  0  0  0  0  0  0  0  0  0  0
   32.8422   32.3480   -3.4279 O   0  0  0  0  0  0  0  0  0  0  0  0
   32.8855   31.7408   -5.7639 C   0  0  0  0  0  0  0  0  0  0  0  0
   33.4320   31.0204   -6.8218 C   0  0  0  0  0  0  0  0  0  0  0  0
   34.5458   30.1980   -6.6164 C   0  0  0  0  0  0  0  0  0  0  0  0
   35.1053   29.5000   -7.6987 C   0  0  0  0  0  0  0  0  0  0  0  0
   36.2398   28.7102   -7.5162 C   0  0  0  0  0  0  0  0  0  0  0  0
   36.8337   28.6204   -6.2585 C   0  0  0  0  0  0  0  0  0  0  0  0
   36.2881   29.3047   -5.1697 C   0  0  0  0  0  0  0  0  0  0  0  0
   35.1188   30.0846   -5.3199 C   0  0  0  0  0  0  0  0  0  0  0  0
   33.1951   32.2795   -2.5626 H   0  0  0  0  0  0  0  0  0  0  0  0
   35.4148   31.7055   -2.1838 N   0  0  0  0  0  0  0  0  0  0  0  0
   35.0027   30.6608   -2.8373 C   0  0  0  0  0  0  0  0  0  0  0  0
   37.3635   31.8427    3.1114 O   0  0  0  0  0  0  0  0  0  0  0  0
   36.8865   31.8047    1.8031 C   0  0  0  0  0  0  0  0  0  0  0  0
   35.8434   32.6468    1.3980 C   0  0  0  0  0  0  0  0  0  0  0  0
   35.3741   32.5994    0.0820 C   0  0  0  0  0  0  0  0  0  0  0  0
   35.9458   31.7206   -0.8478 C   0  0  0  0  0  0  0  0  0  0  0  0
   36.9859   30.8641   -0.4306 C   0  0  0  0  0  0  0  0  0  0  0  0
   37.4528   30.9136    0.8869 C   0  0  0  0  0  0  0  0  0  0  0  0
   36.9878   32.4378    3.7299 H   0  0  0  0  0  0  0  0  0  0  0  0
 15 16  1  0  0  0
 16 17  2  0  0  0
 17 18  1  0  0  0
 18 19  2  0  0  0
 19 20  1  0  0  0
 20 21  2  0  0  0
 19 13  1  0  0  0
 13 14  2  0  0  0
 14  1  1  0  0  0
  1  2  2  0  0  0
  2  3  1  0  0  0
  2  4  1  0  0  0
  4  5  2  0  0  0
  5  6  1  0  0  0
  6  7  2  0  0  0
  7  8  1  0  0  0
  8  9  2  0  0  0
  9 10  1  0  0  0
 10 11  2  0  0  0
 21 16  1  0  0  0
 11  1  1  0  0  0
 11  6  1  0  0  0
 15 22  1  0  0  0
  3 12  1  0  0  0
M  END
> <minimizedAffinity>
-7.93567

> <newdefault_CNNaffinity>
5.2751

> <newdefault_CNNscore>
0.481182

> <CNNaffinity_times_score>
2.5382833

> <protein>
2v3e

$$$$
26666985


 21 23  0  0  0  0  0  0  0  0999 V2000
    3.4473   -7.4760   42.9952 C   0  0  0  0  0  0  0  0  0  0  0  0
    4.6558   -6.8513   43.6178 C   0  0  0  0  0  0  0  0  0  0  0  0
    5.9789   -7.7364   44.1836 S   0  0  0  0  0  0  0  0  0  0  0  0
    6.8329   -6.3907   44.6903 C   0  0  0  0  0  0  0  0  0  0  0  0
    8.0669   -6.3923   45.2454 N   0  0  0  0  0  0  0  0  0  0  0  0
    8.6332   -5.2060   45.5923 C   0  0  0  0  0  0  0  0  0  0  0  0
    7.9575   -4.0381   45.3962 N   0  0  0  0  0  0  0  0  0  0  0  0
    6.7118   -4.0074   44.8374 C   0  0  0  0  0  0  0  0  0  0  0  0
    6.1184   -5.2272   44.4529 C   0  0  0  0  0  0  0  0  0  0  0  0
    4.8792   -5.4764   43.8118 C   0  0  0  0  0  0  0  0  0  0  0  0
    3.9014   -4.4200   43.3759 C   0  0  0  0  0  0  0  0  0  0  0  0
    6.0209   -2.7552   44.7370 N   0  0  0  0  0  0  0  0  0  0  0  0
    5.7915   -2.4176   43.8411 H   0  0  0  0  0  0  0  0  0  0  0  0
    5.6466   -1.9683   45.8810 C   0  0  0  0  0  0  0  0  0  0  0  0
    5.8347   -0.5735   45.9047 C   0  0  0  0  0  0  0  0  0  0  0  0
    5.4445    0.1729   47.0208 C   0  0  0  0  0  0  0  0  0  0  0  0
    4.8529   -0.4618   48.1208 C   0  0  0  0  0  0  0  0  0  0  0  0
    4.4613    0.2717   49.2385 O   0  0  0  0  0  0  0  0  0  0  0  0
    4.6496   -1.8448   48.0962 C   0  0  0  0  0  0  0  0  0  0  0  0
    5.0384   -2.5934   46.9811 C   0  0  0  0  0  0  0  0  0  0  0  0
    4.5949    1.1988   49.2608 H   0  0  0  0  0  0  0  0  0  0  0  0
  1  2  1  0  0  0
  2  3  1  0  0  0
  3  4  1  0  0  0
  4  5  2  0  0  0
  5  6  1  0  0  0
  6  7  2  0  0  0
  7  8  1  0  0  0
  8 12  1  0  0  0
 12 14  1  0  0  0
 14 15  2  0  0  0
 15 16  1  0  0  0
 16 17  2  0  0  0
 17 18  1  0  0  0
 17 19  1  0  0  0
 19 20  2  0  0  0
  8  9  2  0  0  0
  9 10  1  0  0  0
 10 11  1  0  0  0
 10  2  2  0  0  0
  9  4  1  0  0  0
 20 14  1  0  0  0
 12 13  1  0  0  0
 18 21  1  0  0  0
M  END
> <minimizedAffinity>
-5.22883

> <newdefault_CNNaffinity>
4.97568

> <newdefault_CNNscore>
0.291644

> <CNNaffinity_times_score>
1.4511272

> <protein>
3rik

$$$$
26670349


 39 42  0  0  0  0  0  0  0  0999 V2000
    5.5123   -4.1927   44.7836 C   0  0  0  0  0  0  0  0  0  0  0  0
    6.1314   -5.3719   45.0510 C   0  0  0  0  0  0  0  0  0  0  0  0
    7.5443   -5.4072   45.3396 N   0  0  0  0  0  0  0  0  0  0  0  0
    8.2927   -4.3453   45.2781 C   0  0  0  0  0  0  0  0  0  0  0  0
    9.7003   -4.4375   45.5024 N   0  0  0  0  0  0  0  0  0  0  0  0
    7.7071   -3.0778   44.9737 N   0  0  0  0  0  0  0  0  0  0  0  0
    6.2588   -2.8815   44.9923 C   0  0  0  0  0  0  0  0  0  0  0  0
    7.9564   -6.2649   45.5918 H   0  0  0  0  0  0  0  0  0  0  0  0
   10.1093   -5.3080   45.7125 H   0  0  0  0  0  0  0  0  0  0  0  0
   10.2615   -3.6305   45.4469 H   0  0  0  0  0  0  0  0  0  0  0  0
    8.2925   -2.3195   44.7463 H   0  0  0  0  0  0  0  0  0  0  0  0
    5.8705   -2.1696   46.2774 C   0  0  0  0  0  0  0  0  0  0  0  0
    5.9078   -2.8859   47.4803 C   0  0  0  0  0  0  0  0  0  0  0  0
    5.5183   -2.2864   48.6777 C   0  0  0  0  0  0  0  0  0  0  0  0
    5.0906   -0.9466   48.7095 C   0  0  0  0  0  0  0  0  0  0  0  0
    5.0362   -0.2149   47.4947 C   0  0  0  0  0  0  0  0  0  0  0  0
    5.4030   -0.8416   46.2953 C   0  0  0  0  0  0  0  0  0  0  0  0
    4.6288    1.1290   47.4047 O   0  0  0  0  0  0  0  0  0  0  0  0
    3.2914    1.6116   47.4321 C   0  0  0  0  0  0  0  0  0  0  0  0
    4.7014   -0.3347   49.9137 O   0  0  0  0  0  0  0  0  0  0  0  0
    5.5118   -0.1812   51.0783 C   0  0  0  0  0  0  0  0  0  0  0  0
    6.3316    1.0811   51.0038 C   0  0  0  0  0  0  0  0  0  0  0  0
    5.7647    2.3092   51.3661 C   0  0  0  0  0  0  0  0  0  0  0  0
    6.5270    3.4776   51.3062 C   0  0  0  0  0  0  0  0  0  0  0  0
    7.8596    3.4304   50.8830 C   0  0  0  0  0  0  0  0  0  0  0  0
    8.8126    4.8984   50.8029 Cl  0  0  0  0  0  0  0  0  0  0  0  0
    8.4307    2.2054   50.5257 C   0  0  0  0  0  0  0  0  0  0  0  0
    7.6739    1.0308   50.5974 C   0  0  0  0  0  0  0  0  0  0  0  0
    5.3992   -6.6580   45.0891 C   0  0  0  0  0  0  0  0  0  0  0  0
    4.7906   -7.1039   46.2760 C   0  0  0  0  0  0  0  0  0  0  0  0
    4.1415   -8.3399   46.3092 C   0  0  0  0  0  0  0  0  0  0  0  0
    4.1016   -9.1401   45.1652 C   0  0  0  0  0  0  0  0  0  0  0  0
    4.7200   -8.7090   43.9884 C   0  0  0  0  0  0  0  0  0  0  0  0
    5.3698   -7.4743   43.9501 C   0  0  0  0  0  0  0  0  0  0  0  0
    4.1066   -4.1227   44.3073 C   0  0  0  0  0  0  0  0  0  0  0  0
    3.1693   -4.0416   45.1441 O   0  0  0  0  0  0  0  0  0  0  0  0
    3.8242   -4.1150   42.9341 O   0  0  0  0  0  0  0  0  0  0  0  0
    4.2457   -2.8522   40.9140 C   0  0  0  0  0  0  0  0  0  0  0  0
    3.4594   -2.9398   42.2134 C   0  0  0  0  0  0  0  0  0  0  0  0
 38 39  1  0  0  0
 39 37  1  0  0  0
 37 35  1  0  0  0
 35 36  2  0  0  0
 35  1  1  0  0  0
  1  2  2  0  0  0
  2  3  1  0  0  0
  3  4  2  0  0  0
  4  5  1  0  0  0
  4  6  1  0  0  0
  6  7  1  0  0  0
  7 12  1  0  0  0
 12 13  2  0  0  0
 13 14  1  0  0  0
 14 15  2  0  0  0
 15 20  1  0  0  0
 20 21  1  0  0  0
 21 22  1  0  0  0
 22 23  2  0  0  0
 23 24  1  0  0  0
 24 25  2  0  0  0
 25 26  1  0  0  0
 25 27  1  0  0  0
 27 28  2  0  0  0
 15 16  1  0  0  0
 16 18  1  0  0  0
 18 19  1  0  0  0
 16 17  2  0  0  0
  2 29  1  0  0  0
 29 30  2  0  0  0
 30 31  1  0  0  0
 31 32  2  0  0  0
 32 33  1  0  0  0
 33 34  2  0  0  0
  7  1  1  0  0  0
 17 12  1  0  0  0
 28 22  1  0  0  0
 34 29  1  0  0  0
  3  8  1  0  0  0
  5  9  1  0  0  0
  5 10  1  0  0  0
  6 11  1  0  0  0
M  CHG 1   3   1
M  END
> <minimizedAffinity>
-6.84925

> <newdefault_CNNaffinity>
6.66348

> <newdefault_CNNscore>
0.870158

> <CNNaffinity_times_score>
5.7982802

> <protein>
3rik

$$$$
26670896


 24 27  0  0  0  0  0  0  0  0999 V2000
    2.5496   -8.0688   41.2897 C   0  0  0  0  0  0  0  0  0  0  0  0
    2.8731   -8.3257   42.7234 C   0  0  0  0  0  0  0  0  0  0  0  0
    3.2381   -7.2878   43.5310 N   0  0  0  0  0  0  0  0  0  0  0  0
    3.5375   -7.4660   44.8513 C   0  0  0  0  0  0  0  0  0  0  0  0
    3.4627   -8.7667   45.3843 C   0  0  0  0  0  0  0  0  0  0  0  0
    3.6603   -9.2201   46.7084 C   0  0  0  0  0  0  0  0  0  0  0  0
    3.9793   -8.3702   47.9134 C   0  0  0  0  0  0  0  0  0  0  0  0
    3.6670   -9.1088   49.2256 C   0  0  0  0  0  0  0  0  0  0  0  0
    4.2515  -10.5285   49.2145 C   0  0  0  0  0  0  0  0  0  0  0  0
    3.6319  -11.3817   48.0964 C   0  0  0  0  0  0  0  0  0  0  0  0
    3.5166  -10.6087   46.8161 C   0  0  0  0  0  0  0  0  0  0  0  0
    3.0767  -11.2696   45.3265 S   0  0  0  0  0  0  0  0  0  0  0  0
    3.1105   -9.7970   44.5260 C   0  0  0  0  0  0  0  0  0  0  0  0
    2.8152   -9.5912   43.2218 N   0  0  0  0  0  0  0  0  0  0  0  0
    3.9978   -6.3495   45.6245 N   0  0  0  0  0  0  0  0  0  0  0  0
    3.3548   -5.8899   46.2115 H   0  0  0  0  0  0  0  0  0  0  0  0
    5.3524   -5.8679   45.5849 C   0  0  0  0  0  0  0  0  0  0  0  0
    6.4402   -6.7500   45.4442 C   0  0  0  0  0  0  0  0  0  0  0  0
    7.7472   -6.2562   45.3888 C   0  0  0  0  0  0  0  0  0  0  0  0
    7.9826   -4.8770   45.4614 C   0  0  0  0  0  0  0  0  0  0  0  0
    9.2805   -4.3739   45.4082 O   0  0  0  0  0  0  0  0  0  0  0  0
    6.9046   -3.9955   45.5848 C   0  0  0  0  0  0  0  0  0  0  0  0
    5.5967   -4.4867   45.6401 C   0  0  0  0  0  0  0  0  0  0  0  0
   10.0071   -4.9597   45.3255 H   0  0  0  0  0  0  0  0  0  0  0  0
  1  2  1  0  0  0
  2  3  2  0  0  0
  3  4  1  0  0  0
  4 15  1  0  0  0
 15 17  1  0  0  0
 17 18  2  0  0  0
 18 19  1  0  0  0
 19 20  2  0  0  0
 20 21  1  0  0  0
 20 22  1  0  0  0
 22 23  2  0  0  0
  4  5  2  0  0  0
  5  6  1  0  0  0
  6  7  1  0  0  0
  7  8  1  0  0  0
  8  9  1  0  0  0
  9 10  1  0  0  0
 10 11  1  0  0  0
 11 12  1  0  0  0
 12 13  1  0  0  0
 13 14  2  0  0  0
 14  2  1  0  0  0
 23 17  1  0  0  0
 13  5  1  0  0  0
 11  6  2  0  0  0
 15 16  1  0  0  0
 21 24  1  0  0  0
M  END
> <minimizedAffinity>
-5.90277

> <newdefault_CNNaffinity>
5.61922

> <newdefault_CNNscore>
0.539446

> <CNNaffinity_times_score>
3.0312655

> <protein>
3rik

$$$$
26725076


 24 26  0  0  0  0  0  0  0  0999 V2000
    0.4346   -1.0670   40.7622 C   0  0  0  0  0  0  0  0  0  0  0  0
    1.6985   -1.2974   41.3289 C   0  0  0  0  0  0  0  0  0  0  0  0
    2.0067   -2.5299   41.9011 C   0  0  0  0  0  0  0  0  0  0  0  0
    3.2129   -2.7121   42.4299 O   0  0  0  0  0  0  0  0  0  0  0  0
    3.5973   -3.8508   43.0011 C   0  0  0  0  0  0  0  0  0  0  0  0
    2.7053   -4.9335   43.0474 C   0  0  0  0  0  0  0  0  0  0  0  0
    1.4269   -4.7927   42.5061 C   0  0  0  0  0  0  0  0  0  0  0  0
    0.6354   -5.7729   42.5525 O   0  0  0  0  0  0  0  0  0  0  0  0
    1.0489   -3.5670   41.9172 C   0  0  0  0  0  0  0  0  0  0  0  0
   -0.2275   -3.3416   41.3479 C   0  0  0  0  0  0  0  0  0  0  0  0
   -1.1758   -4.3591   41.3615 O   0  0  0  0  0  0  0  0  0  0  0  0
   -0.5337   -2.0834   40.7681 C   0  0  0  0  0  0  0  0  0  0  0  0
    4.9703   -3.9413   43.5592 C   0  0  0  0  0  0  0  0  0  0  0  0
    5.8373   -4.9513   43.1037 C   0  0  0  0  0  0  0  0  0  0  0  0
    7.1376   -5.0530   43.6072 C   0  0  0  0  0  0  0  0  0  0  0  0
    7.5950   -4.1437   44.5643 C   0  0  0  0  0  0  0  0  0  0  0  0
    8.8929   -4.2575   45.0570 O   0  0  0  0  0  0  0  0  0  0  0  0
    6.7459   -3.1259   45.0156 C   0  0  0  0  0  0  0  0  0  0  0  0
    5.4444   -3.0212   44.5155 C   0  0  0  0  0  0  0  0  0  0  0  0
    9.4530   -4.9423   44.7483 H   0  0  0  0  0  0  0  0  0  0  0  0
    0.4794    0.5728   38.8689 C   0  0  0  0  0  0  0  0  0  0  0  0
    0.0983    0.1661   40.1795 O   0  0  0  0  0  0  0  0  0  0  0  0
   -1.7764   -1.7753   40.1815 O   0  0  0  0  0  0  0  0  0  0  0  0
   -2.1872   -2.0825   38.8538 C   0  0  0  0  0  0  0  0  0  0  0  0
 21 22  1  0  0  0
 22  1  1  0  0  0
  1  2  2  0  0  0
  2  3  1  0  0  0
  3  4  1  0  0  0
  4  5  1  0  0  0
  5  6  2  0  0  0
  6  7  1  0  0  0
  7  8  2  0  0  0
  7  9  1  0  0  0
  9 10  1  0  0  0
 10 11  1  0  0  0
 10 12  2  0  0  0
 12 23  1  0  0  0
 23 24  1  0  0  0
  5 13  1  0  0  0
 13 14  2  0  0  0
 14 15  1  0  0  0
 15 16  2  0  0  0
 16 17  1  0  0  0
 16 18  1  0  0  0
 18 19  2  0  0  0
 12  1  1  0  0  0
  9  3  2  0  0  0
 19 13  1  0  0  0
 17 20  1  0  0  0
M  CHG 1  11  -1
M  END
> <minimizedAffinity>
-5.19774

> <newdefault_CNNaffinity>
4.98687

> <newdefault_CNNscore>
0.71397

> <CNNaffinity_times_score>
3.5604753

> <protein>
3rik

$$$$
26725279


 24 25  0  0  0  0  0  0  0  0999 V2000
   35.6385   33.4866   -1.8580 C   0  0  0  0  0  0  0  0  0  0  0  0
   36.5384   34.0910   -2.5022 O   0  0  0  0  0  0  0  0  0  0  0  0
   36.0070   32.7104   -0.6525 C   0  0  0  0  0  0  0  0  0  0  0  0
   36.7799   31.5346   -0.7584 C   0  0  0  0  0  0  0  0  0  0  0  0
   37.1840   31.0660   -2.0088 O   0  0  0  0  0  0  0  0  0  0  0  0
   37.1254   30.8181    0.3959 C   0  0  0  0  0  0  0  0  0  0  0  0
   36.6925   31.2504    1.6543 C   0  0  0  0  0  0  0  0  0  0  0  0
   37.0300   30.5399    2.8041 O   0  0  0  0  0  0  0  0  0  0  0  0
   35.9116   32.4028    1.7610 C   0  0  0  0  0  0  0  0  0  0  0  0
   35.5656   33.1352    0.6171 C   0  0  0  0  0  0  0  0  0  0  0  0
   34.7964   34.2926    0.7418 O   0  0  0  0  0  0  0  0  0  0  0  0
   36.9557   31.5412   -2.7834 H   0  0  0  0  0  0  0  0  0  0  0  0
   37.5538   29.7657    2.7395 H   0  0  0  0  0  0  0  0  0  0  0  0
   34.5046   34.5724    1.5871 H   0  0  0  0  0  0  0  0  0  0  0  0
   34.2163   33.5548   -2.3443 C   0  0  0  0  0  0  0  0  0  0  0  0
   33.5966   32.1553   -2.4134 C   0  0  0  0  0  0  0  0  0  0  0  0
   34.2058   29.8336   -7.5922 O   0  0  0  0  0  0  0  0  0  0  0  0
   34.0553   30.4107   -6.3333 C   0  0  0  0  0  0  0  0  0  0  0  0
   33.1885   31.4957   -6.1436 C   0  0  0  0  0  0  0  0  0  0  0  0
   33.0457   32.0669   -4.8753 C   0  0  0  0  0  0  0  0  0  0  0  0
   33.7767   31.5646   -3.7863 C   0  0  0  0  0  0  0  0  0  0  0  0
   34.6336   30.4687   -3.9793 C   0  0  0  0  0  0  0  0  0  0  0  0
   34.7748   29.8993   -5.2484 C   0  0  0  0  0  0  0  0  0  0  0  0
   33.7266   30.1716   -8.3229 H   0  0  0  0  0  0  0  0  0  0  0  0
 17 18  1  0  0  0
 18 19  2  0  0  0
 19 20  1  0  0  0
 20 21  2  0  0  0
 21 16  1  0  0  0
 16 15  1  0  0  0
 15  1  1  0  0  0
  1  2  2  0  0  0
  1  3  1  0  0  0
  3  4  2  0  0  0
  4  5  1  0  0  0
  4  6  1  0  0  0
  6  7  2  0  0  0
  7  8  1  0  0  0
  7  9  1  0  0  0
  9 10  2  0  0  0
 10 11  1  0  0  0
 21 22  1  0  0  0
 22 23  2  0  0  0
 23 18  1  0  0  0
 10  3  1  0  0  0
 17 24  1  0  0  0
  5 12  1  0  0  0
  8 13  1  0  0  0
 11 14  1  0  0  0
M  END
> <minimizedAffinity>
-8.24845

> <newdefault_CNNaffinity>
5.86923

> <newdefault_CNNscore>
0.707363

> <CNNaffinity_times_score>
4.151676

> <protein>
2v3e

$$$$
26747225


 22 23  0  0  0  0  0  0  0  0999 V2000
   34.6981   31.0063   -3.2324 C   0  0  0  0  0  0  0  0  0  0  0  0
   34.7833   29.7493   -3.2562 O   0  0  0  0  0  0  0  0  0  0  0  0
   34.7615   31.7006   -1.9252 C   0  0  0  0  0  0  0  0  0  0  0  0
   33.5989   32.2960   -1.4084 C   0  0  0  0  0  0  0  0  0  0  0  0
   33.6281   32.9574   -0.1781 C   0  0  0  0  0  0  0  0  0  0  0  0
   34.8168   33.0215    0.5581 C   0  0  0  0  0  0  0  0  0  0  0  0
   34.8582   33.6817    1.7841 O   0  0  0  0  0  0  0  0  0  0  0  0
   35.9738   32.4139    0.0621 C   0  0  0  0  0  0  0  0  0  0  0  0
   35.9524   31.7432   -1.1699 C   0  0  0  0  0  0  0  0  0  0  0  0
   37.1039   31.1056   -1.6318 O   0  0  0  0  0  0  0  0  0  0  0  0
   34.0861   34.0910    2.1221 H   0  0  0  0  0  0  0  0  0  0  0  0
   37.8920   31.1374   -1.1259 H   0  0  0  0  0  0  0  0  0  0  0  0
   33.3539   31.7997   -5.1527 C   0  0  0  0  0  0  0  0  0  0  0  0
   34.5313   31.7210   -4.5154 C   0  0  0  0  0  0  0  0  0  0  0  0
   32.6926   34.5520  -10.0911 O   0  0  0  0  0  0  0  0  0  0  0  0
   32.8543   33.8758   -8.8839 C   0  0  0  0  0  0  0  0  0  0  0  0
   32.9787   34.5813   -7.6809 C   0  0  0  0  0  0  0  0  0  0  0  0
   33.1400   33.8918   -6.4756 C   0  0  0  0  0  0  0  0  0  0  0  0
   33.1677   32.4871   -6.4536 C   0  0  0  0  0  0  0  0  0  0  0  0
   33.0572   31.7854   -7.6714 C   0  0  0  0  0  0  0  0  0  0  0  0
   32.8968   32.4790   -8.8750 C   0  0  0  0  0  0  0  0  0  0  0  0
   32.6634   35.4884  -10.1033 H   0  0  0  0  0  0  0  0  0  0  0  0
 15 16  1  0  0  0
 16 17  2  0  0  0
 17 18  1  0  0  0
 18 19  2  0  0  0
 19 13  1  0  0  0
 13 14  2  0  0  0
 14  1  1  0  0  0
  1  2  2  0  0  0
  1  3  1  0  0  0
  3  4  2  0  0  0
  4  5  1  0  0  0
  5  6  2  0  0  0
  6  7  1  0  0  0
  6  8  1  0  0  0
  8  9  2  0  0  0
  9 10  1  0  0  0
 19 20  1  0  0  0
 20 21  2  0  0  0
 21 16  1  0  0  0
  9  3  1  0  0  0
 15 22  1  0  0  0
  7 11  1  0  0  0
 10 12  1  0  0  0
M  END
> <minimizedAffinity>
-7.42880

> <newdefault_CNNaffinity>
5.33633

> <newdefault_CNNscore>
0.657691

> <CNNaffinity_times_score>
3.5096562

> <protein>
2v3d

$$$$
26748787


 24 25  0  0  0  0  0  0  0  0999 V2000
  -33.9559  -17.0837    5.7841 S   0  0  0  0  0  0  0  0  0  0  0  0
  -32.5100  -16.8538    6.1256 O   0  0  0  0  0  0  0  0  0  0  0  0
  -34.8127  -16.0433    6.4484 O   0  0  0  0  0  0  0  0  0  0  0  0
  -34.4910  -16.8259    1.2481 C   0  0  0  0  0  0  0  0  0  0  0  0
  -35.2468  -17.7417    2.0023 C   0  0  0  0  0  0  0  0  0  0  0  0
  -35.0811  -17.8219    3.3882 C   0  0  0  0  0  0  0  0  0  0  0  0
  -34.1735  -16.9775    4.0409 C   0  0  0  0  0  0  0  0  0  0  0  0
  -33.4304  -16.0537    3.2953 C   0  0  0  0  0  0  0  0  0  0  0  0
  -33.5960  -15.9719    1.9098 C   0  0  0  0  0  0  0  0  0  0  0  0
  -35.4220  -15.5426   -2.2933 C   0  0  0  0  0  0  0  0  0  0  0  0
  -35.4770  -15.7105   -0.8097 C   0  0  0  0  0  0  0  0  0  0  0  0
  -36.2703  -15.0009   -0.1339 O   0  0  0  0  0  0  0  0  0  0  0  0
  -34.6585  -16.7051   -0.1751 N   0  0  0  0  0  0  0  0  0  0  0  0
  -34.1815  -17.3452   -0.7512 H   0  0  0  0  0  0  0  0  0  0  0  0
  -34.4208  -18.6653    6.3229 N   0  0  0  0  0  0  0  0  0  0  0  0
  -35.7521  -19.0585    6.6813 C   0  0  0  0  0  0  0  0  0  0  0  0
  -36.2302  -18.7230    7.9525 C   0  0  0  0  0  0  0  0  0  0  0  0
  -37.5218  -19.0858    8.3450 C   0  0  0  0  0  0  0  0  0  0  0  0
  -38.3611  -19.7935    7.4678 C   0  0  0  0  0  0  0  0  0  0  0  0
  -37.8789  -20.1297    6.1898 C   0  0  0  0  0  0  0  0  0  0  0  0
  -36.5867  -19.7661    5.7990 C   0  0  0  0  0  0  0  0  0  0  0  0
  -39.6908  -20.1662    7.8736 N   0  0  0  0  0  0  0  0  0  0  0  0
  -40.1351  -19.8258    8.9898 O   0  0  0  0  0  0  0  0  0  0  0  0
  -40.4959  -20.9051    7.0373 O   0  0  0  0  0  0  0  0  0  0  0  0
 10 11  1  0  0  0
 11 12  2  0  0  0
 11 13  1  0  0  0
 13  4  1  0  0  0
  4  5  2  0  0  0
  5  6  1  0  0  0
  6  7  2  0  0  0
  7  8  1  0  0  0
  8  9  2  0  0  0
  7  1  1  0  0  0
  1  2  2  0  0  0
  1  3  2  0  0  0
  1 15  1  0  0  0
 15 16  1  0  0  0
 16 17  2  0  0  0
 17 18  1  0  0  0
 18 19  2  0  0  0
 19 20  1  0  0  0
 20 21  2  0  0  0
 19 22  1  0  0  0
 22 23  2  0  0  0
 22 24  1  0  0  0
  9  4  1  0  0  0
 21 16  1  0  0  0
 13 14  1  0  0  0
M  CHG 1  15  -1
M  CHG 1  22   1
M  CHG 1  24  -1
M  END
> <minimizedAffinity>
-6.92331

> <newdefault_CNNaffinity>
5.29179

> <newdefault_CNNscore>
0.413545

> <CNNaffinity_times_score>
2.1883934

> <protein>
2xwe

$$$$
26751640


 20 21  0  0  0  0  0  0  0  0999 V2000
   -0.7824   -3.1590   27.4289 C   0  0  0  0  0  0  0  0  0  0  0  0
   -0.0669   -2.9257   28.6156 C   0  0  0  0  0  0  0  0  0  0  0  0
    1.1795   -2.2874   28.5876 C   0  0  0  0  0  0  0  0  0  0  0  0
    1.8803   -2.0715   29.7372 N   0  0  0  0  0  0  0  0  0  0  0  0
    3.0952   -1.4578   29.7129 C   0  0  0  0  0  0  0  0  0  0  0  0
    3.7263   -1.2674   30.7878 O   0  0  0  0  0  0  0  0  0  0  0  0
    3.6363   -1.0415   28.4893 C   0  0  0  0  0  0  0  0  0  0  0  0
    4.7604   -0.4712   28.4494 O   0  0  0  0  0  0  0  0  0  0  0  0
    2.9412   -1.2555   27.3386 N   0  0  0  0  0  0  0  0  0  0  0  0
    1.7245   -1.8707   27.3573 C   0  0  0  0  0  0  0  0  0  0  0  0
    1.0087   -2.0824   26.1723 C   0  0  0  0  0  0  0  0  0  0  0  0
   -0.2512   -2.7062   26.1947 C   0  0  0  0  0  0  0  0  0  0  0  0
    1.5020   -2.3638   30.5978 H   0  0  0  0  0  0  0  0  0  0  0  0
    3.3228   -0.9616   26.4799 H   0  0  0  0  0  0  0  0  0  0  0  0
   -3.2166   -3.2514   27.3491 O   0  0  0  0  0  0  0  0  0  0  0  0
   -2.0119   -3.9009   27.4913 N   0  0  0  0  0  0  0  0  0  0  0  0
   -2.0109   -5.0919   27.8652 O   0  0  0  0  0  0  0  0  0  0  0  0
   -1.0003   -2.8184   24.9729 N   0  0  0  0  0  0  0  0  0  0  0  0
   -0.8878   -3.8359   24.2580 O   0  0  0  0  0  0  0  0  0  0  0  0
   -1.6816   -1.7306   24.4771 O   0  0  0  0  0  0  0  0  0  0  0  0
 15 16  1  0  0  0
 16 17  2  0  0  0
 16  1  1  0  0  0
  1  2  2  0  0  0
  2  3  1  0  0  0
  3  4  1  0  0  0
  4  5  1  0  0  0
  5  6  2  0  0  0
  5  7  1  0  0  0
  7  8  2  0  0  0
  7  9  1  0  0  0
  9 10  1  0  0  0
 10 11  1  0  0  0
 11 12  2  0  0  0
 12 18  1  0  0  0
 18 19  2  0  0  0
 18 20  1  0  0  0
 12  1  1  0  0  0
 10  3  2  0  0  0
  4 13  1  0  0  0
  9 14  1  0  0  0
M  CHG 1  15  -1
M  CHG 1  16   1
M  CHG 1  18   1
M  CHG 1  20  -1
M  END
> <minimizedAffinity>
-6.45805

> <newdefault_CNNaffinity>
4.43852

> <newdefault_CNNscore>
0.46798

> <CNNaffinity_times_score>
2.0771387

> <protein>
3rik

$$$$
26751783


 25 28  0  0  0  0  0  0  0  0999 V2000
   36.2351   29.2071   -5.5348 C   0  0  0  0  0  0  0  0  0  0  0  0
   35.1111   28.8967   -6.2977 C   0  0  0  0  0  0  0  0  0  0  0  0
   33.9706   29.6914   -6.2125 C   0  0  0  0  0  0  0  0  0  0  0  0
   33.9277   30.7917   -5.3463 C   0  0  0  0  0  0  0  0  0  0  0  0
   32.4470   31.8032   -5.3982 S   0  0  0  0  0  0  0  0  0  0  0  0
   33.3754   33.1153   -6.1867 C   0  0  0  0  0  0  0  0  0  0  0  0
   33.2870   33.3194   -7.5680 C   0  0  0  0  0  0  0  0  0  0  0  0
   34.0856   34.2887   -8.1817 C   0  0  0  0  0  0  0  0  0  0  0  0
   34.9836   35.0422   -7.4194 C   0  0  0  0  0  0  0  0  0  0  0  0
   35.0838   34.8311   -6.0403 C   0  0  0  0  0  0  0  0  0  0  0  0
   34.2746   33.8695   -5.4147 C   0  0  0  0  0  0  0  0  0  0  0  0
   34.3771   33.6105   -3.9321 C   0  0  0  0  0  0  0  0  0  0  0  0
   35.1457   32.3093   -3.5684 C   0  0  0  0  0  0  0  0  0  0  0  0
   35.0628   31.1149   -4.5461 C   0  0  0  0  0  0  0  0  0  0  0  0
   36.2119   30.3064   -4.6729 C   0  0  0  0  0  0  0  0  0  0  0  0
   34.8354   31.9315   -2.1615 N   0  0  0  0  0  0  0  0  0  0  0  0
   35.9855   31.3856   -1.4137 C   0  0  0  0  0  0  0  0  0  0  0  0
   35.5150   30.8378   -0.0583 C   0  0  0  0  0  0  0  0  0  0  0  0
   34.7877   31.8505    0.7402 N   0  0  0  0  0  0  0  0  0  0  0  0
   35.6997   32.8389    1.3483 C   0  0  0  0  0  0  0  0  0  0  0  0
   33.7088   32.4943   -0.0431 C   0  0  0  0  0  0  0  0  0  0  0  0
   34.2022   33.0224   -1.3984 C   0  0  0  0  0  0  0  0  0  0  0  0
   34.3403   31.3560    1.5120 H   0  0  0  0  0  0  0  0  0  0  0  0
   37.1463   27.3447   -7.1656 C   0  0  0  0  0  0  0  0  0  0  0  0
   37.7114   28.1958   -5.6597 S   0  0  0  0  0  0  0  0  0  0  0  0
 24 25  1  0  0  0
 25  1  1  0  0  0
  1  2  2  0  0  0
  2  3  1  0  0  0
  3  4  2  0  0  0
  4  5  1  0  0  0
  5  6  1  0  0  0
  6  7  2  0  0  0
  7  8  1  0  0  0
  8  9  2  0  0  0
  9 10  1  0  0  0
 10 11  2  0  0  0
 11 12  1  0  0  0
 12 13  1  0  0  0
 13 16  1  0  0  0
 16 17  1  0  0  0
 17 18  1  0  0  0
 18 19  1  0  0  0
 19 20  1  0  0  0
 19 21  1  0  0  0
 21 22  1  0  0  0
 13 14  1  0  0  0
 14 15  2  0  0  0
 15  1  1  0  0  0
 14  4  1  0  0  0
 11  6  1  0  0  0
 22 16  1  0  0  0
 19 23  1  0  0  0
M  CHG 1  19   1
M  END
> <minimizedAffinity>
-7.60008

> <newdefault_CNNaffinity>
6.81727

> <newdefault_CNNscore>
0.804198

> <CNNaffinity_times_score>
5.4824347

> <protein>
2v3d

$$$$
26751873


 18 19  0  0  0  0  0  0  0  0999 V2000
   34.8346   34.2242   -1.4437 O   0  0  0  0  0  0  0  0  0  0  0  0
   33.9528   33.2166   -1.0193 C   0  0  0  0  0  0  0  0  0  0  0  0
   33.5532   32.3214   -2.2023 C   0  0  0  0  0  0  0  0  0  0  0  0
   34.3445   31.0166   -2.0219 C   0  0  0  0  0  0  0  0  0  0  0  0
   35.3310   31.2854   -0.9724 N   0  0  0  0  0  0  0  0  0  0  0  0
   35.7772   30.0997   -0.2207 C   0  0  0  0  0  0  0  0  0  0  0  0
   36.8207   30.5221    0.8428 C   0  0  0  0  0  0  0  0  0  0  0  0
   37.1639   29.4182    1.6389 O   0  0  0  0  0  0  0  0  0  0  0  0
   36.2723   31.6566    1.7498 C   0  0  0  0  0  0  0  0  0  0  0  0
   37.2732   32.1268    2.6176 O   0  0  0  0  0  0  0  0  0  0  0  0
   35.6723   32.8249    0.9200 C   0  0  0  0  0  0  0  0  0  0  0  0
   35.0617   33.7756    1.7571 O   0  0  0  0  0  0  0  0  0  0  0  0
   34.6618   32.2397   -0.0881 C   0  0  0  0  0  0  0  0  0  0  0  0
   34.3671   34.8354   -2.0343 H   0  0  0  0  0  0  0  0  0  0  0  0
   36.1941   31.6358   -1.3879 H   0  0  0  0  0  0  0  0  0  0  0  0
   36.3747   29.0950    2.1010 H   0  0  0  0  0  0  0  0  0  0  0  0
   37.9991   32.5066    2.0983 H   0  0  0  0  0  0  0  0  0  0  0  0
   34.3446   33.3539    2.2560 H   0  0  0  0  0  0  0  0  0  0  0  0
  2  1  1  0  0  0
  2  3  1  0  0  0
  3  4  1  0  0  0
  5  4  1  0  0  0
  5  6  1  0  0  0
  6  7  1  0  0  0
  7  8  1  0  0  0
  7  9  1  0  0  0
  9 10  1  0  0  0
  9 11  1  0  0  0
 11 12  1  0  0  0
 11 13  1  0  0  0
 13  2  1  0  0  0
 13  5  1  0  0  0
  1 14  1  0  0  0
  5 15  1  0  0  0
  8 16  1  0  0  0
 10 17  1  0  0  0
 12 18  1  0  0  0
M  CHG 1   5   1
M  END
> <minimizedAffinity>
-7.26540

> <newdefault_CNNaffinity>
5.92854

> <newdefault_CNNscore>
0.980567

> <CNNaffinity_times_score>
5.8133307

> <protein>
2v3d

$$$$
26752075


 22 24  0  0  0  0  0  0  0  0999 V2000
   -8.8352   -9.3037   39.9104 C   0  0  0  0  0  0  0  0  0  0  0  0
   -9.7591  -10.2478   40.3808 C   0  0  0  0  0  0  0  0  0  0  0  0
  -11.0072   -9.8977   40.6646 O   0  0  0  0  0  0  0  0  0  0  0  0
  -11.4552   -8.6552   40.5259 C   0  0  0  0  0  0  0  0  0  0  0  0
  -12.7867   -8.3703   40.8448 C   0  0  0  0  0  0  0  0  0  0  0  0
  -13.2834   -7.0723   40.7101 C   0  0  0  0  0  0  0  0  0  0  0  0
  -14.6127   -6.8088   41.0330 O   0  0  0  0  0  0  0  0  0  0  0  0
  -12.4444   -6.0493   40.2531 C   0  0  0  0  0  0  0  0  0  0  0  0
  -11.1096   -6.3156   39.9292 C   0  0  0  0  0  0  0  0  0  0  0  0
  -10.3126   -5.2683   39.4778 O   0  0  0  0  0  0  0  0  0  0  0  0
  -10.5977   -7.6283   40.0621 C   0  0  0  0  0  0  0  0  0  0  0  0
   -9.2624   -7.9703   39.7586 C   0  0  0  0  0  0  0  0  0  0  0  0
   -8.4450   -7.0898   39.3728 O   0  0  0  0  0  0  0  0  0  0  0  0
  -15.1666   -7.5003   41.3381 H   0  0  0  0  0  0  0  0  0  0  0  0
   -3.5134  -10.9406   38.7300 O   0  0  0  0  0  0  0  0  0  0  0  0
   -4.8186  -10.5416   39.0082 C   0  0  0  0  0  0  0  0  0  0  0  0
   -5.1451  -10.0932   40.2916 C   0  0  0  0  0  0  0  0  0  0  0  0
   -6.4511   -9.6895   40.5853 C   0  0  0  0  0  0  0  0  0  0  0  0
   -7.4469   -9.7244   39.5932 C   0  0  0  0  0  0  0  0  0  0  0  0
   -7.1133  -10.1829   38.3062 C   0  0  0  0  0  0  0  0  0  0  0  0
   -5.8066  -10.5866   38.0159 C   0  0  0  0  0  0  0  0  0  0  0  0
   -2.8601  -10.9066   39.4009 H   0  0  0  0  0  0  0  0  0  0  0  0
 15 16  1  0  0  0
 16 17  2  0  0  0
 17 18  1  0  0  0
 18 19  2  0  0  0
 19 20  1  0  0  0
 20 21  2  0  0  0
 19  1  1  0  0  0
  1  2  2  0  0  0
  2  3  1  0  0  0
  3  4  1  0  0  0
  4  5  2  0  0  0
  5  6  1  0  0  0
  6  7  1  0  0  0
  6  8  2  0  0  0
  8  9  1  0  0  0
  9 10  1  0  0  0
  9 11  2  0  0  0
 11 12  1  0  0  0
 12 13  2  0  0  0
 21 16  1  0  0  0
 12  1  1  0  0  0
 11  4  1  0  0  0
 15 22  1  0  0  0
  7 14  1  0  0  0
M  CHG 1  10  -1
M  END
> <minimizedAffinity>
-7.55371

> <newdefault_CNNaffinity>
5.27862

> <newdefault_CNNscore>
0.268569

> <CNNaffinity_times_score>
1.4176736

> <protein>
3ril

$$$$
26753557


 16 17  0  0  0  0  0  0  0  0999 V2000
   33.9376   34.3210   -3.7259 Cl  0  0  0  0  0  0  0  0  0  0  0  0
   34.5720   33.0608   -2.6761 C   0  0  0  0  0  0  0  0  0  0  0  0
   35.1531   33.4260   -1.4562 C   0  0  0  0  0  0  0  0  0  0  0  0
   35.6683   32.4454   -0.5962 C   0  0  0  0  0  0  0  0  0  0  0  0
   36.2368   32.7879    0.5946 N   0  0  0  0  0  0  0  0  0  0  0  0
   36.7377   31.8376    1.4310 C   0  0  0  0  0  0  0  0  0  0  0  0
   37.2593   32.1762    2.5280 O   0  0  0  0  0  0  0  0  0  0  0  0
   36.6694   30.4863    1.0652 C   0  0  0  0  0  0  0  0  0  0  0  0
   37.1290   29.5946    1.8293 O   0  0  0  0  0  0  0  0  0  0  0  0
   36.1029   30.1378   -0.1226 N   0  0  0  0  0  0  0  0  0  0  0  0
   35.5996   31.0845   -0.9644 C   0  0  0  0  0  0  0  0  0  0  0  0
   35.0166   30.7231   -2.1876 C   0  0  0  0  0  0  0  0  0  0  0  0
   34.5034   31.7053   -3.0430 C   0  0  0  0  0  0  0  0  0  0  0  0
   33.7804   31.2104   -4.5677 Cl  0  0  0  0  0  0  0  0  0  0  0  0
   36.2858   33.7364    0.8536 H   0  0  0  0  0  0  0  0  0  0  0  0
   36.0560   29.1880   -0.3774 H   0  0  0  0  0  0  0  0  0  0  0  0
  1  2  1  0  0  0
  2  3  2  0  0  0
  3  4  1  0  0  0
  4  5  1  0  0  0
  5  6  1  0  0  0
  6  7  2  0  0  0
  6  8  1  0  0  0
  8  9  2  0  0  0
  8 10  1  0  0  0
 10 11  1  0  0  0
 11 12  1  0  0  0
 12 13  2  0  0  0
 13 14  1  0  0  0
 13  2  1  0  0  0
 11  4  2  0  0  0
  5 15  1  0  0  0
 10 16  1  0  0  0
M  END
> <minimizedAffinity>
-7.13639

> <newdefault_CNNaffinity>
5.90812

> <newdefault_CNNscore>
0.49647

> <CNNaffinity_times_score>
2.9332044

> <protein>
2v3e

$$$$
26755232


 24 27  0  0  0  0  0  0  0  0999 V2000
  -34.8064  -15.9730    2.9792 C   0  0  0  0  0  0  0  0  0  0  0  0
  -35.3206  -17.2279    3.7303 C   0  0  0  0  0  0  0  0  0  0  0  0
  -34.9934  -17.4127    5.2158 C   0  0  0  0  0  0  0  0  0  0  0  0
  -35.6978  -18.4523    5.8572 C   0  0  0  0  0  0  0  0  0  0  0  0
  -35.5815  -18.6688    7.2304 C   0  0  0  0  0  0  0  0  0  0  0  0
  -34.7584  -17.8513    7.9980 C   0  0  0  0  0  0  0  0  0  0  0  0
  -34.0295  -16.8313    7.3907 C   0  0  0  0  0  0  0  0  0  0  0  0
  -34.1128  -16.6129    6.0078 C   0  0  0  0  0  0  0  0  0  0  0  0
  -33.0295  -15.3421    5.3470 S   0  0  0  0  0  0  0  0  0  0  0  0
  -34.4195  -14.3280    4.8593 C   0  0  0  0  0  0  0  0  0  0  0  0
  -34.7619  -13.2144    5.6329 C   0  0  0  0  0  0  0  0  0  0  0  0
  -35.8656  -12.4360    5.2880 C   0  0  0  0  0  0  0  0  0  0  0  0
  -36.6383  -12.7762    4.1764 C   0  0  0  0  0  0  0  0  0  0  0  0
  -38.0708  -11.7731    3.7378 S   0  0  0  0  0  0  0  0  0  0  0  0
  -36.3087  -13.8982    3.4076 C   0  0  0  0  0  0  0  0  0  0  0  0
  -35.1828  -14.6865    3.7282 C   0  0  0  0  0  0  0  0  0  0  0  0
  -36.2150  -16.1430   -2.5141 C   0  0  0  0  0  0  0  0  0  0  0  0
  -35.9324  -15.9482   -1.0821 N   0  0  0  0  0  0  0  0  0  0  0  0
  -34.4920  -15.7033   -0.8710 C   0  0  0  0  0  0  0  0  0  0  0  0
  -34.2335  -15.2972    0.5902 C   0  0  0  0  0  0  0  0  0  0  0  0
  -35.1448  -15.9963    1.5276 N   0  0  0  0  0  0  0  0  0  0  0  0
  -35.6528  -17.2921    1.0376 C   0  0  0  0  0  0  0  0  0  0  0  0
  -36.4111  -17.1124   -0.2934 C   0  0  0  0  0  0  0  0  0  0  0  0
  -36.4386  -15.1254   -0.7546 H   0  0  0  0  0  0  0  0  0  0  0  0
 17 18  1  0  0  0
 18 19  1  0  0  0
 19 20  1  0  0  0
 20 21  1  0  0  0
 21 22  1  0  0  0
 22 23  1  0  0  0
  1 21  1  0  0  0
  1  2  1  0  0  0
  2  3  1  0  0  0
  3  4  2  0  0  0
  4  5  1  0  0  0
  5  6  2  0  0  0
  6  7  1  0  0  0
  7  8  2  0  0  0
  8  9  1  0  0  0
  9 10  1  0  0  0
 10 11  2  0  0  0
 11 12  1  0  0  0
 12 13  2  0  0  0
 13 14  1  0  0  0
 13 15  1  0  0  0
 15 16  2  0  0  0
 23 18  1  0  0  0
 16  1  1  0  0  0
  8  3  1  0  0  0
 16 10  1  0  0  0
 18 24  1  0  0  0
M  CHG 1  14  -1
M  CHG 1  18   1
M  END
> <minimizedAffinity>
-6.78048

> <newdefault_CNNaffinity>
6.68122

> <newdefault_CNNscore>
0.78689

> <CNNaffinity_times_score>
5.2573853

> <protein>
2xwe

$$$$
26755795


 24 24  0  0  0  0  0  0  0  0999 V2000
  -33.9702  -14.2364    4.5876 C   0  0  0  0  0  0  0  0  0  0  0  0
  -34.7064  -15.5759    4.4658 C   0  0  0  0  0  0  0  0  0  0  0  0
  -34.9791  -15.8851    3.0060 C   0  0  0  0  0  0  0  0  0  0  0  0
  -35.0692  -17.1310    2.4954 C   0  0  0  0  0  0  0  0  0  0  0  0
  -34.8807  -18.3600    3.3581 C   0  0  0  0  0  0  0  0  0  0  0  0
  -35.3086  -17.2686    1.0367 C   0  0  0  0  0  0  0  0  0  0  0  0
  -36.3199  -16.6584    0.4029 C   0  0  0  0  0  0  0  0  0  0  0  0
  -36.5805  -16.8301   -1.0396 C   0  0  0  0  0  0  0  0  0  0  0  0
  -36.4343  -15.8378   -1.8023 O   0  0  0  0  0  0  0  0  0  0  0  0
  -36.9694  -18.0934   -1.5955 N   0  0  0  0  0  0  0  0  0  0  0  0
  -37.3704  -18.1764   -2.8871 O   0  0  0  0  0  0  0  0  0  0  0  0
  -36.9451  -18.9035   -1.0366 H   0  0  0  0  0  0  0  0  0  0  0  0
  -37.3368  -17.2961   -3.2933 H   0  0  0  0  0  0  0  0  0  0  0  0
  -35.9943  -15.5253    5.2676 C   0  0  0  0  0  0  0  0  0  0  0  0
  -36.6498  -14.4464    5.2871 O   0  0  0  0  0  0  0  0  0  0  0  0
  -36.4962  -16.6854    6.0641 C   0  0  0  0  0  0  0  0  0  0  0  0
  -37.8685  -16.9956    6.0511 C   0  0  0  0  0  0  0  0  0  0  0  0
  -38.3710  -18.0567    6.8068 C   0  0  0  0  0  0  0  0  0  0  0  0
  -37.5160  -18.8451    7.5971 C   0  0  0  0  0  0  0  0  0  0  0  0
  -36.1409  -18.5480    7.5973 C   0  0  0  0  0  0  0  0  0  0  0  0
  -35.6375  -17.4836    6.8460 C   0  0  0  0  0  0  0  0  0  0  0  0
  -38.0409  -19.9305    8.4008 N   0  0  0  0  0  0  0  0  0  0  0  0
  -37.3625  -20.3351    9.6376 C   0  0  0  0  0  0  0  0  0  0  0  0
  -39.2693  -20.6260    7.9971 C   0  0  0  0  0  0  0  0  0  0  0  0
  2  1  1  0  0  0
  2  3  1  0  0  0
  3  4  2  0  0  0
  4  5  1  0  0  0
  4  6  1  0  0  0
  6  7  2  0  0  0
  7  8  1  0  0  0
  8  9  2  0  0  0
  8 10  1  0  0  0
 10 11  1  0  0  0
  2 14  1  0  0  0
 14 15  2  0  0  0
 14 16  1  0  0  0
 16 17  2  0  0  0
 17 18  1  0  0  0
 18 19  2  0  0  0
 19 20  1  0  0  0
 20 21  2  0  0  0
 19 22  1  0  0  0
 22 23  1  0  0  0
 22 24  1  0  0  0
 21 16  1  0  0  0
 10 12  1  0  0  0
 11 13  1  0  0  0
M  END
> <minimizedAffinity>
-6.56410

> <newdefault_CNNaffinity>
5.81636

> <newdefault_CNNscore>
0.47372

> <CNNaffinity_times_score>
2.755326

> <protein>
2xwd

$$$$
29215530


 20 21  0  0  0  0  0  0  0  0999 V2000
  -37.5789  -17.1981   -2.6198 O   0  0  0  0  0  0  0  0  0  0  0  0
  -36.7339  -16.6931   -1.6337 C   0  0  0  0  0  0  0  0  0  0  0  0
  -36.7027  -17.2907   -0.4129 N   0  0  0  0  0  0  0  0  0  0  0  0
  -35.8932  -16.8327    0.5785 C   0  0  0  0  0  0  0  0  0  0  0  0
  -35.8786  -17.4538    1.8287 C   0  0  0  0  0  0  0  0  0  0  0  0
  -35.0503  -16.9701    2.8572 C   0  0  0  0  0  0  0  0  0  0  0  0
  -34.1940  -15.8652    2.6020 C   0  0  0  0  0  0  0  0  0  0  0  0
  -34.2329  -15.2374    1.3442 C   0  0  0  0  0  0  0  0  0  0  0  0
  -35.0740  -15.7163    0.3382 C   0  0  0  0  0  0  0  0  0  0  0  0
  -35.1037  -15.1190   -0.8822 N   0  0  0  0  0  0  0  0  0  0  0  0
  -35.9132  -15.5790   -1.8742 C   0  0  0  0  0  0  0  0  0  0  0  0
  -35.9221  -14.9457   -3.1133 O   0  0  0  0  0  0  0  0  0  0  0  0
  -38.1183  -17.9425   -2.4384 H   0  0  0  0  0  0  0  0  0  0  0  0
  -35.3709  -14.2031   -3.2639 H   0  0  0  0  0  0  0  0  0  0  0  0
  -33.2480  -15.4036    3.5808 N   0  0  0  0  0  0  0  0  0  0  0  0
  -33.4939  -14.3889    4.2653 O   0  0  0  0  0  0  0  0  0  0  0  0
  -32.1738  -16.1917    3.9254 O   0  0  0  0  0  0  0  0  0  0  0  0
  -35.1316  -17.5754    4.1584 N   0  0  0  0  0  0  0  0  0  0  0  0
  -35.7713  -17.0177    5.0740 O   0  0  0  0  0  0  0  0  0  0  0  0
  -34.6968  -18.8675    4.3450 O   0  0  0  0  0  0  0  0  0  0  0  0
  1  2  1  0  0  0
  2  3  2  0  0  0
  3  4  1  0  0  0
  4  5  2  0  0  0
  5  6  1  0  0  0
  6  7  2  0  0  0
  7  8  1  0  0  0
  8  9  2  0  0  0
  9 10  1  0  0  0
 10 11  2  0  0  0
 11 12  1  0  0  0
  7 15  1  0  0  0
 15 16  2  0  0  0
 15 17  1  0  0  0
  6 18  1  0  0  0
 18 19  2  0  0  0
 18 20  1  0  0  0
 11  2  1  0  0  0
  9  4  1  0  0  0
  1 13  1  0  0  0
 12 14  1  0  0  0
M  CHG 1  15   1
M  CHG 1  17  -1
M  CHG 1  18   1
M  CHG 1  20  -1
M  END
> <minimizedAffinity>
-7.42026

> <newdefault_CNNaffinity>
5.76142

> <newdefault_CNNscore>
0.662395

> <CNNaffinity_times_score>
3.8163357

> <protein>
2xwd

$$$$
29217195


 29 30  0  0  0  0  0  0  0  0999 V2000
    3.7909   -1.1496   45.8117 C   0  0  0  0  0  0  0  0  0  0  0  0
    4.1140   -1.9259   44.5709 C   0  0  0  0  0  0  0  0  0  0  0  0
    4.5811   -3.1923   44.5804 C   0  0  0  0  0  0  0  0  0  0  0  0
    4.8739   -3.9273   45.8682 C   0  0  0  0  0  0  0  0  0  0  0  0
    4.7413   -5.3287   45.7126 O   0  0  0  0  0  0  0  0  0  0  0  0
    5.5700   -5.8839   44.6914 C   0  0  0  0  0  0  0  0  0  0  0  0
    5.4198   -5.1339   43.3747 C   0  0  0  0  0  0  0  0  0  0  0  0
    4.9544   -3.8820   43.3229 C   0  0  0  0  0  0  0  0  0  0  0  0
    4.8704   -3.2075   42.0110 C   0  0  0  0  0  0  0  0  0  0  0  0
    3.7814   -3.2742   41.2262 C   0  0  0  0  0  0  0  0  0  0  0  0
    2.5552   -4.0407   41.6523 C   0  0  0  0  0  0  0  0  0  0  0  0
    3.7993   -2.5654   39.9005 C   0  0  0  0  0  0  0  0  0  0  0  0
    5.1052   -7.3229   44.5138 C   0  0  0  0  0  0  0  0  0  0  0  0
    4.9364   -7.8091   43.3603 O   0  0  0  0  0  0  0  0  0  0  0  0
    4.8658   -8.1461   45.6656 N   0  0  0  0  0  0  0  0  0  0  0  0
    4.9614   -7.7567   46.5648 H   0  0  0  0  0  0  0  0  0  0  0  0
    4.4827   -9.5517   45.5309 C   0  0  0  0  0  0  0  0  0  0  0  0
    3.3412   -9.9040   46.5015 C   0  0  0  0  0  0  0  0  0  0  0  0
    3.8219  -10.1414   47.8847 N   0  0  0  0  0  0  0  0  0  0  0  0
    3.2378  -11.3960   48.4052 C   0  0  0  0  0  0  0  0  0  0  0  0
    3.6622  -11.6514   49.8704 C   0  0  0  0  0  0  0  0  0  0  0  0
    4.4162  -10.5806   50.4030 O   0  0  0  0  0  0  0  0  0  0  0  0
    3.6844   -9.3805   50.2697 C   0  0  0  0  0  0  0  0  0  0  0  0
    3.4921   -9.0087   48.7827 C   0  0  0  0  0  0  0  0  0  0  0  0
    4.8382  -10.2229   47.8574 H   0  0  0  0  0  0  0  0  0  0  0  0
    7.0682   -5.8995   45.1104 C   0  0  0  0  0  0  0  0  0  0  0  0
    7.7242   -4.7604   44.6721 F   0  0  0  0  0  0  0  0  0  0  0  0
    7.7134   -6.9942   44.5579 F   0  0  0  0  0  0  0  0  0  0  0  0
    7.1824   -5.9673   46.4873 F   0  0  0  0  0  0  0  0  0  0  0  0
  1  2  1  0  0  0
  2  3  2  0  0  0
  3  4  1  0  0  0
  4  5  1  0  0  0
  5  6  1  0  0  0
  6  7  1  0  0  0
  7  8  2  0  0  0
  8  9  1  0  0  0
  9 10  2  0  0  0
 10 11  1  0  0  0
 10 12  1  0  0  0
  6 13  1  0  0  0
 13 14  2  0  0  0
 13 15  1  0  0  0
 15 17  1  0  0  0
 17 18  1  0  0  0
 18 19  1  0  0  0
 19 20  1  0  0  0
 20 21  1  0  0  0
 21 22  1  0  0  0
 22 23  1  0  0  0
 23 24  1  0  0  0
  6 26  1  0  0  0
 26 27  1  0  0  0
 26 28  1  0  0  0
 26 29  1  0  0  0
  3  8  1  0  0  0
 24 19  1  0  0  0
 15 16  1  0  0  0
 19 25  1  0  0  0
M  CHG 1  19   1
M  END
> <minimizedAffinity>
-6.10461

> <newdefault_CNNaffinity>
5.14223

> <newdefault_CNNscore>
0.415068

> <CNNaffinity_times_score>
2.134375

> <protein>
3rik

$$$$
47196785


 23 26  0  0  0  0  0  0  0  0999 V2000
    4.5852   -6.2449   43.8650 C   0  0  0  0  0  0  0  0  0  0  0  0
    3.9404   -5.4203   42.9956 N   0  0  0  0  0  0  0  0  0  0  0  0
    4.3959   -4.1760   42.6951 C   0  0  0  0  0  0  0  0  0  0  0  0
    5.5338   -3.7245   43.2830 N   0  0  0  0  0  0  0  0  0  0  0  0
    6.2335   -4.4939   44.1544 C   0  0  0  0  0  0  0  0  0  0  0  0
    7.4078   -3.9930   44.7275 C   0  0  0  0  0  0  0  0  0  0  0  0
    8.1517   -4.7827   45.6054 C   0  0  0  0  0  0  0  0  0  0  0  0
    7.7308   -6.0787   45.9083 C   0  0  0  0  0  0  0  0  0  0  0  0
    6.5582   -6.5910   45.3442 C   0  0  0  0  0  0  0  0  0  0  0  0
    5.7839   -5.7984   44.4703 C   0  0  0  0  0  0  0  0  0  0  0  0
    3.6546   -3.3206   41.7363 C   0  0  0  0  0  0  0  0  0  0  0  0
    2.3151   -2.9607   41.9844 C   0  0  0  0  0  0  0  0  0  0  0  0
    1.6178   -2.1555   41.0784 C   0  0  0  0  0  0  0  0  0  0  0  0
    2.2455   -1.7008   39.9171 C   0  0  0  0  0  0  0  0  0  0  0  0
    3.5724   -2.0503   39.6585 C   0  0  0  0  0  0  0  0  0  0  0  0
    4.2753   -2.8553   40.5604 C   0  0  0  0  0  0  0  0  0  0  0  0
    4.0134   -7.5359   44.1504 N   0  0  0  0  0  0  0  0  0  0  0  0
    3.3490   -7.6191   44.8721 H   0  0  0  0  0  0  0  0  0  0  0  0
    3.6384  -10.8879   42.6181 C   0  0  0  0  0  0  0  0  0  0  0  0
    4.7325  -11.1297   43.6568 C   0  0  0  0  0  0  0  0  0  0  0  0
    5.0635   -9.7753   44.2787 C   0  0  0  0  0  0  0  0  0  0  0  0
    4.3993   -8.7302   43.3889 C   0  0  0  0  0  0  0  0  0  0  0  0
    3.1944   -9.4442   42.7907 C   0  0  0  0  0  0  0  0  0  0  0  0
 19 20  1  0  0  0
 20 21  1  0  0  0
 21 22  1  0  0  0
 22 23  1  0  0  0
 22 17  1  0  0  0
 17  1  1  0  0  0
  1  2  2  0  0  0
  2  3  1  0  0  0
  3  4  2  0  0  0
  4  5  1  0  0  0
  5  6  2  0  0  0
  6  7  1  0  0  0
  7  8  2  0  0  0
  8  9  1  0  0  0
  9 10  2  0  0  0
  3 11  1  0  0  0
 11 12  2  0  0  0
 12 13  1  0  0  0
 13 14  2  0  0  0
 14 15  1  0  0  0
 15 16  2  0  0  0
 23 19  1  0  0  0
 10  1  1  0  0  0
 10  5  1  0  0  0
 16 11  1  0  0  0
 17 18  1  0  0  0
M  END
> <minimizedAffinity>
-6.53634

> <newdefault_CNNaffinity>
5.1558

> <newdefault_CNNscore>
0.305009

> <CNNaffinity_times_score>
1.5725654

> <protein>
3rik

$$$$
47199787


 29 31  0  0  0  0  0  0  0  0999 V2000
    5.5504   -7.9591   44.6939 C   0  0  0  0  0  0  0  0  0  0  0  0
    6.2071   -8.9821   44.3524 O   0  0  0  0  0  0  0  0  0  0  0  0
    4.1587   -8.0891   45.0672 N   0  0  0  0  0  0  0  0  0  0  0  0
    6.8683   -4.6132   45.8882 C   0  0  0  0  0  0  0  0  0  0  0  0
    7.5216   -4.1557   44.7341 C   0  0  0  0  0  0  0  0  0  0  0  0
    7.4934   -4.9158   43.5619 C   0  0  0  0  0  0  0  0  0  0  0  0
    6.8494   -6.1552   43.5415 C   0  0  0  0  0  0  0  0  0  0  0  0
    6.2412   -6.6519   44.7011 C   0  0  0  0  0  0  0  0  0  0  0  0
    6.2460   -5.8695   45.8672 C   0  0  0  0  0  0  0  0  0  0  0  0
    6.1311   -2.7098   47.4397 C   0  0  0  0  0  0  0  0  0  0  0  0
    6.4750   -2.0068   48.4312 O   0  0  0  0  0  0  0  0  0  0  0  0
    6.9113   -3.8765   47.1215 N   0  0  0  0  0  0  0  0  0  0  0  0
    7.5325   -4.2003   47.8133 H   0  0  0  0  0  0  0  0  0  0  0  0
    5.1481   -1.2885   45.6300 C   0  0  0  0  0  0  0  0  0  0  0  0
    4.8722   -2.3401   46.7012 C   0  0  0  0  0  0  0  0  0  0  0  0
    3.1777   -7.1433   44.5029 C   0  0  0  0  0  0  0  0  0  0  0  0
    2.4253   -7.7441   43.3379 C   0  0  0  0  0  0  0  0  0  0  0  0
    3.0798   -8.0455   42.1353 C   0  0  0  0  0  0  0  0  0  0  0  0
    2.3531   -8.5211   41.0350 C   0  0  0  0  0  0  0  0  0  0  0  0
    0.9685   -8.6974   41.1275 C   0  0  0  0  0  0  0  0  0  0  0  0
    0.3141   -8.4307   42.3361 C   0  0  0  0  0  0  0  0  0  0  0  0
    1.0353   -7.9581   43.4379 C   0  0  0  0  0  0  0  0  0  0  0  0
    3.6769   -9.3868   45.5845 C   0  0  0  0  0  0  0  0  0  0  0  0
    3.8141   -9.4551   47.0829 C   0  0  0  0  0  0  0  0  0  0  0  0
    3.4660   -8.3456   47.8798 C   0  0  0  0  0  0  0  0  0  0  0  0
    3.5068   -8.4439   49.2759 C   0  0  0  0  0  0  0  0  0  0  0  0
    3.9198   -9.6388   49.8834 C   0  0  0  0  0  0  0  0  0  0  0  0
    4.2798  -10.7465   49.0931 C   0  0  0  0  0  0  0  0  0  0  0  0
    4.2214  -10.6595   47.6978 C   0  0  0  0  0  0  0  0  0  0  0  0
 14 15  1  0  0  0
 15 10  1  0  0  0
 10 11  2  0  0  0
 10 12  1  0  0  0
 12  4  1  0  0  0
  4  5  2  0  0  0
  5  6  1  0  0  0
  6  7  2  0  0  0
  7  8  1  0  0  0
  8  9  2  0  0  0
  8  1  1  0  0  0
  1  2  2  0  0  0
  1  3  1  0  0  0
  3 16  1  0  0  0
 16 17  1  0  0  0
 17 18  2  0  0  0
 18 19  1  0  0  0
 19 20  2  0  0  0
 20 21  1  0  0  0
 21 22  2  0  0  0
  3 23  1  0  0  0
 23 24  1  0  0  0
 24 25  2  0  0  0
 25 26  1  0  0  0
 26 27  2  0  0  0
 27 28  1  0  0  0
 28 29  2  0  0  0
  9  4  1  0  0  0
 22 17  1  0  0  0
 29 24  1  0  0  0
 12 13  1  0  0  0
M  END
> <minimizedAffinity>
-5.34779

> <newdefault_CNNaffinity>
5.12064

> <newdefault_CNNscore>
0.369448

> <CNNaffinity_times_score>
1.8918102

> <protein>
3rik

$$$$
47200514


 20 21  0  0  0  0  0  0  0  0999 V2000
    3.7974   -7.0176   43.4491 C   0  0  0  0  0  0  0  0  0  0  0  0
    2.9134   -7.8182   42.3212 S   0  0  0  0  0  0  0  0  0  0  0  0
    3.4678   -5.6612   43.7922 N   0  0  0  0  0  0  0  0  0  0  0  0
    3.4666   -5.4135   44.7450 H   0  0  0  0  0  0  0  0  0  0  0  0
    1.9943   -1.2394   39.7683 Br  0  0  0  0  0  0  0  0  0  0  0  0
    2.4590   -2.6138   41.0104 C   0  0  0  0  0  0  0  0  0  0  0  0
    3.7981   -2.9751   41.1863 C   0  0  0  0  0  0  0  0  0  0  0  0
    4.1401   -3.9800   42.0964 C   0  0  0  0  0  0  0  0  0  0  0  0
    3.1397   -4.6434   42.8308 C   0  0  0  0  0  0  0  0  0  0  0  0
    1.8004   -4.2584   42.6632 C   0  0  0  0  0  0  0  0  0  0  0  0
    1.4612   -3.2536   41.7521 C   0  0  0  0  0  0  0  0  0  0  0  0
    4.7896   -7.7422   44.1923 N   0  0  0  0  0  0  0  0  0  0  0  0
    4.4908   -8.3129   44.9368 H   0  0  0  0  0  0  0  0  0  0  0  0
    6.2209   -7.6763   43.9004 C   0  0  0  0  0  0  0  0  0  0  0  0
    6.8287   -6.4306   44.4888 C   0  0  0  0  0  0  0  0  0  0  0  0
    7.0130   -6.3094   45.8745 C   0  0  0  0  0  0  0  0  0  0  0  0
    7.5667   -5.1375   46.3956 C   0  0  0  0  0  0  0  0  0  0  0  0
    7.9142   -4.1190   45.5650 N   0  0  0  0  0  0  0  0  0  0  0  0
    7.7362   -4.2041   44.2200 C   0  0  0  0  0  0  0  0  0  0  0  0
    7.1864   -5.3586   43.6574 C   0  0  0  0  0  0  0  0  0  0  0  0
  5  6  1  0  0  0
  6  7  2  0  0  0
  7  8  1  0  0  0
  8  9  2  0  0  0
  9  3  1  0  0  0
  3  1  1  0  0  0
  1  2  2  0  0  0
  1 12  1  0  0  0
 12 14  1  0  0  0
 14 15  1  0  0  0
 15 16  2  0  0  0
 16 17  1  0  0  0
 17 18  2  0  0  0
 18 19  1  0  0  0
 19 20  2  0  0  0
  9 10  1  0  0  0
 10 11  2  0  0  0
 11  6  1  0  0  0
 20 15  1  0  0  0
  3  4  1  0  0  0
 12 13  1  0  0  0
M  END
> <minimizedAffinity>
-4.85154

> <newdefault_CNNaffinity>
4.6175

> <newdefault_CNNscore>
0.507234

> <CNNaffinity_times_score>
2.3421528

> <protein>
3rik

$$$$
49641672


 25 27  0  0  0  0  0  0  0  0999 V2000
    6.0605   -5.5228   43.4911 C   0  0  0  0  0  0  0  0  0  0  0  0
    5.4301   -4.5710   42.7545 N   0  0  0  0  0  0  0  0  0  0  0  0
    4.1220   -4.6834   42.3976 C   0  0  0  0  0  0  0  0  0  0  0  0
    3.4179   -5.7820   42.7814 N   0  0  0  0  0  0  0  0  0  0  0  0
    3.9956   -6.7768   43.5019 C   0  0  0  0  0  0  0  0  0  0  0  0
    3.2464   -7.9031   43.8612 C   0  0  0  0  0  0  0  0  0  0  0  0
    3.8466   -8.9453   44.5727 C   0  0  0  0  0  0  0  0  0  0  0  0
    5.1979   -8.8706   44.9200 C   0  0  0  0  0  0  0  0  0  0  0  0
    5.9550   -7.7487   44.5680 C   0  0  0  0  0  0  0  0  0  0  0  0
    5.3551   -6.6817   43.8724 C   0  0  0  0  0  0  0  0  0  0  0  0
    3.4692   -3.6155   41.6008 C   0  0  0  0  0  0  0  0  0  0  0  0
    4.1970   -2.8974   40.6313 C   0  0  0  0  0  0  0  0  0  0  0  0
    3.5792   -1.8919   39.8816 C   0  0  0  0  0  0  0  0  0  0  0  0
    2.2317   -1.5908   40.0881 C   0  0  0  0  0  0  0  0  0  0  0  0
    1.4985   -2.2945   41.0456 C   0  0  0  0  0  0  0  0  0  0  0  0
    2.1104   -3.3012   41.7986 C   0  0  0  0  0  0  0  0  0  0  0  0
    7.4320   -5.3168   43.8488 N   0  0  0  0  0  0  0  0  0  0  0  0
    8.1226   -5.9009   43.4601 H   0  0  0  0  0  0  0  0  0  0  0  0
    7.8318   -4.2594   44.7779 C   0  0  0  0  0  0  0  0  0  0  0  0
    7.2116   -4.4757   46.1661 C   0  0  0  0  0  0  0  0  0  0  0  0
    5.9970   -3.5835   46.4387 C   0  0  0  0  0  0  0  0  0  0  0  0
    6.4255   -2.2987   46.8422 O   0  0  0  0  0  0  0  0  0  0  0  0
    6.8605   -0.5927   45.1985 C   0  0  0  0  0  0  0  0  0  0  0  0
    5.8061   -1.2912   46.0609 C   0  0  0  0  0  0  0  0  0  0  0  0
    4.7501   -1.9484   45.1732 C   0  0  0  0  0  0  0  0  0  0  0  0
 23 24  1  0  0  0
 24 25  1  0  0  0
 24 22  1  0  0  0
 22 21  1  0  0  0
 21 20  1  0  0  0
 20 19  1  0  0  0
 19 17  1  0  0  0
 17  1  1  0  0  0
  1  2  2  0  0  0
  2  3  1  0  0  0
  3  4  2  0  0  0
  4  5  1  0  0  0
  5  6  2  0  0  0
  6  7  1  0  0  0
  7  8  2  0  0  0
  8  9  1  0  0  0
  9 10  2  0  0  0
  3 11  1  0  0  0
 11 12  2  0  0  0
 12 13  1  0  0  0
 13 14  2  0  0  0
 14 15  1  0  0  0
 15 16  2  0  0  0
 10  1  1  0  0  0
 10  5  1  0  0  0
 16 11  1  0  0  0
 17 18  1  0  0  0
M  END
> <minimizedAffinity>
-6.37163

> <newdefault_CNNaffinity>
5.52066

> <newdefault_CNNscore>
0.598607

> <CNNaffinity_times_score>
3.3047056

> <protein>
3rik

$$$$
49642048


 22 24  0  0  0  0  0  0  0  0999 V2000
    3.3198   -9.1240   48.8495 C   0  0  0  0  0  0  0  0  0  0  0  0
    3.6189   -8.4030   47.6914 C   0  0  0  0  0  0  0  0  0  0  0  0
    4.1119   -9.2239   46.6680 C   0  0  0  0  0  0  0  0  0  0  0  0
    4.5348   -8.8591   45.3821 C   0  0  0  0  0  0  0  0  0  0  0  0
    5.0587   -9.8266   44.5754 N   0  0  0  0  0  0  0  0  0  0  0  0
    5.1345  -11.1334   44.9711 C   0  0  0  0  0  0  0  0  0  0  0  0
    5.7398  -12.1510   44.0633 C   0  0  0  0  0  0  0  0  0  0  0  0
    4.7143  -11.4979   46.2161 N   0  0  0  0  0  0  0  0  0  0  0  0
    4.2086  -10.5498   47.0388 C   0  0  0  0  0  0  0  0  0  0  0  0
    3.6753  -10.7646   48.6133 S   0  0  0  0  0  0  0  0  0  0  0  0
    2.3198   -7.0972   49.8984 C   0  0  0  0  0  0  0  0  0  0  0  0
    2.7603   -8.5413   50.1114 C   0  0  0  0  0  0  0  0  0  0  0  0
    4.4800   -7.5047   44.9131 N   0  0  0  0  0  0  0  0  0  0  0  0
    3.6204   -7.1696   44.5695 H   0  0  0  0  0  0  0  0  0  0  0  0
    5.6031   -6.6056   44.9134 C   0  0  0  0  0  0  0  0  0  0  0  0
    6.4620   -6.5781   46.0225 C   0  0  0  0  0  0  0  0  0  0  0  0
    7.5654   -5.7197   46.0433 C   0  0  0  0  0  0  0  0  0  0  0  0
    7.8293   -4.8862   44.9486 C   0  0  0  0  0  0  0  0  0  0  0  0
    8.9243   -4.0254   44.9583 O   0  0  0  0  0  0  0  0  0  0  0  0
    6.9873   -4.9201   43.8329 C   0  0  0  0  0  0  0  0  0  0  0  0
    5.8838   -5.7781   43.8094 C   0  0  0  0  0  0  0  0  0  0  0  0
    9.4922   -3.9982   45.7031 H   0  0  0  0  0  0  0  0  0  0  0  0
 11 12  1  0  0  0
 12  1  1  0  0  0
  1  2  2  0  0  0
  2  3  1  0  0  0
  3  4  2  0  0  0
  4 13  1  0  0  0
 13 15  1  0  0  0
 15 16  2  0  0  0
 16 17  1  0  0  0
 17 18  2  0  0  0
 18 19  1  0  0  0
 18 20  1  0  0  0
 20 21  2  0  0  0
  4  5  1  0  0  0
  5  6  2  0  0  0
  6  7  1  0  0  0
  6  8  1  0  0  0
  8  9  2  0  0  0
  9 10  1  0  0  0
 10  1  1  0  0  0
  9  3  1  0  0  0
 21 15  1  0  0  0
 13 14  1  0  0  0
 19 22  1  0  0  0
M  END
> <minimizedAffinity>
-5.96501

> <newdefault_CNNaffinity>
5.24288

> <newdefault_CNNscore>
0.578094

> <CNNaffinity_times_score>
3.0308774

> <protein>
3rik

$$$$
49643265


 41 43  0  0  0  0  0  0  0  0999 V2000
   -2.6897   -7.2866   39.7121 C   0  0  0  0  0  0  0  0  0  0  0  0
   -2.0575   -7.3218   40.9611 C   0  0  0  0  0  0  0  0  0  0  0  0
   -0.8366   -6.5251   41.3282 C   0  0  0  0  0  0  0  0  0  0  0  0
   -2.7234   -8.1621   41.8031 N   0  0  0  0  0  0  0  0  0  0  0  0
   -3.7863   -8.6229   41.1062 C   0  0  0  0  0  0  0  0  0  0  0  0
   -4.7973   -9.4805   41.5533 C   0  0  0  0  0  0  0  0  0  0  0  0
   -5.8269   -9.8181   40.6579 C   0  0  0  0  0  0  0  0  0  0  0  0
   -5.8219   -9.3220   39.3264 C   0  0  0  0  0  0  0  0  0  0  0  0
   -4.7897   -8.4644   38.9076 C   0  0  0  0  0  0  0  0  0  0  0  0
   -3.7936   -8.1167   39.8285 C   0  0  0  0  0  0  0  0  0  0  0  0
   -2.2726   -6.5079   38.5262 C   0  0  0  0  0  0  0  0  0  0  0  0
   -2.9506   -5.5152   38.1516 O   0  0  0  0  0  0  0  0  0  0  0  0
   -1.1180   -6.8751   37.8265 O   0  0  0  0  0  0  0  0  0  0  0  0
   -1.1789   -8.2118   35.8048 C   0  0  0  0  0  0  0  0  0  0  0  0
   -1.0022   -6.8213   36.4075 C   0  0  0  0  0  0  0  0  0  0  0  0
   -2.3827   -8.5119   43.1898 C   0  0  0  0  0  0  0  0  0  0  0  0
   -2.5736   -7.3270   44.1015 C   0  0  0  0  0  0  0  0  0  0  0  0
   -3.7728   -6.5967   44.0756 C   0  0  0  0  0  0  0  0  0  0  0  0
   -3.9540   -5.5140   44.9401 C   0  0  0  0  0  0  0  0  0  0  0  0
   -2.9395   -5.1472   45.8267 C   0  0  0  0  0  0  0  0  0  0  0  0
   -1.7394   -5.8606   45.8500 C   0  0  0  0  0  0  0  0  0  0  0  0
   -1.5528   -6.9417   44.9880 C   0  0  0  0  0  0  0  0  0  0  0  0
   -6.8088   -9.6685   38.3953 O   0  0  0  0  0  0  0  0  0  0  0  0
   -8.1411  -10.0460   38.7408 C   0  0  0  0  0  0  0  0  0  0  0  0
   -9.1028   -8.8473   38.5993 C   0  0  0  0  0  0  0  0  0  0  0  0
   -8.5232   -7.8249   37.8271 O   0  0  0  0  0  0  0  0  0  0  0  0
   -7.7312   -7.4901   38.2761 H   0  0  0  0  0  0  0  0  0  0  0  0
   -9.5337   -8.2745   39.9720 C   0  0  0  0  0  0  0  0  0  0  0  0
  -11.0040   -8.2399   40.1277 N   0  0  0  0  0  0  0  0  0  0  0  0
  -11.2621   -8.9597   40.8028 H   0  0  0  0  0  0  0  0  0  0  0  0
  -11.3804   -8.3869   39.1912 H   0  0  0  0  0  0  0  0  0  0  0  0
  -11.5902   -6.9457   40.5947 C   0  0  0  0  0  0  0  0  0  0  0  0
  -12.8634   -6.6774   39.7312 C   0  0  0  0  0  0  0  0  0  0  0  0
  -13.3560   -5.3708   39.8908 O   0  0  0  0  0  0  0  0  0  0  0  0
  -13.6114   -5.2324   40.8163 H   0  0  0  0  0  0  0  0  0  0  0  0
  -12.0222   -7.0270   42.0935 C   0  0  0  0  0  0  0  0  0  0  0  0
  -13.4160   -6.9387   42.2281 O   0  0  0  0  0  0  0  0  0  0  0  0
  -13.7214   -6.0878   41.8766 H   0  0  0  0  0  0  0  0  0  0  0  0
  -10.5778   -5.7828   40.3595 C   0  0  0  0  0  0  0  0  0  0  0  0
  -10.6743   -5.2836   39.0481 O   0  0  0  0  0  0  0  0  0  0  0  0
  -10.4697   -5.9912   38.4170 H   0  0  0  0  0  0  0  0  0  0  0  0
 14 15  1  0  0  0
 15 13  1  0  0  0
 13 11  1  0  0  0
 11 12  2  0  0  0
 11  1  1  0  0  0
  1  2  2  0  0  0
  2  3  1  0  0  0
  2  4  1  0  0  0
  4 16  1  0  0  0
 16 17  1  0  0  0
 17 18  2  0  0  0
 18 19  1  0  0  0
 19 20  2  0  0  0
 20 21  1  0  0  0
 21 22  2  0  0  0
  4  5  1  0  0  0
  5  6  2  0  0  0
  6  7  1  0  0  0
  7  8  2  0  0  0
  8 23  1  0  0  0
 23 24  1  0  0  0
 24 25  1  0  0  0
 25 26  1  0  0  0
 25 28  1  0  0  0
 28 29  1  0  0  0
 29 32  1  0  0  0
 32 33  1  0  0  0
 33 34  1  0  0  0
 32 36  1  0  0  0
 36 37  1  0  0  0
 32 39  1  0  0  0
 39 40  1  0  0  0
  8  9  1  0  0  0
  9 10  2  0  0  0
 10  1  1  0  0  0
 22 17  1  0  0  0
 10  5  1  0  0  0
 26 27  1  0  0  0
 29 30  1  0  0  0
 29 31  1  0  0  0
 34 35  1  0  0  0
 37 38  1  0  0  0
 40 41  1  0  0  0
M  CHG 1  29   1
M  END
> <minimizedAffinity>
-6.36999

> <newdefault_CNNaffinity>
6.18995

> <newdefault_CNNscore>
0.628603

> <CNNaffinity_times_score>
3.891021

> <protein>
3ril

$$$$
49644112


 26 28  0  0  0  0  0  0  0  0999 V2000
   37.0282   32.6156   -4.3915 C   0  0  0  0  0  0  0  0  0  0  0  0
   37.0265   31.3234   -4.8184 N   0  0  0  0  0  0  0  0  0  0  0  0
   37.5752   30.9462   -6.0034 C   0  0  0  0  0  0  0  0  0  0  0  0
   38.1557   31.8840   -6.7962 N   0  0  0  0  0  0  0  0  0  0  0  0
   38.1896   33.1920   -6.4367 C   0  0  0  0  0  0  0  0  0  0  0  0
   38.7879   34.1273   -7.2885 C   0  0  0  0  0  0  0  0  0  0  0  0
   38.8074   35.4793   -6.9414 C   0  0  0  0  0  0  0  0  0  0  0  0
   38.2225   35.9039   -5.7470 C   0  0  0  0  0  0  0  0  0  0  0  0
   37.6230   34.9789   -4.8862 C   0  0  0  0  0  0  0  0  0  0  0  0
   37.6128   33.6068   -5.2133 C   0  0  0  0  0  0  0  0  0  0  0  0
   37.5446   29.5233   -6.4227 C   0  0  0  0  0  0  0  0  0  0  0  0
   37.8145   28.4967   -5.4961 C   0  0  0  0  0  0  0  0  0  0  0  0
   37.7840   27.1566   -5.8938 C   0  0  0  0  0  0  0  0  0  0  0  0
   37.4849   26.8240   -7.2164 C   0  0  0  0  0  0  0  0  0  0  0  0
   37.2151   27.8313   -8.1451 C   0  0  0  0  0  0  0  0  0  0  0  0
   37.2437   29.1734   -7.7537 C   0  0  0  0  0  0  0  0  0  0  0  0
   36.4666   32.9276   -3.1032 N   0  0  0  0  0  0  0  0  0  0  0  0
   37.0678   32.9716   -2.3248 H   0  0  0  0  0  0  0  0  0  0  0  0
   35.0399   33.1822   -2.9019 C   0  0  0  0  0  0  0  0  0  0  0  0
   34.3574   31.9152   -2.3747 C   0  0  0  0  0  0  0  0  0  0  0  0
   34.4719   31.7695   -0.8493 C   0  0  0  0  0  0  0  0  0  0  0  0
   35.4571   30.6634   -0.4335 C   0  0  0  0  0  0  0  0  0  0  0  0
   36.8093   31.2319    0.0169 C   0  0  0  0  0  0  0  0  0  0  0  0
   37.2739   29.7457    1.9755 O   0  0  0  0  0  0  0  0  0  0  0  0
   37.0393   31.0231    1.4825 C   0  0  0  0  0  0  0  0  0  0  0  0
   37.0530   32.0071    2.2678 O   0  0  0  0  0  0  0  0  0  0  0  0
 24 25  1  0  0  0
 25 26  2  0  0  0
 25 23  1  0  0  0
 23 22  1  0  0  0
 22 21  1  0  0  0
 21 20  1  0  0  0
 20 19  1  0  0  0
 19 17  1  0  0  0
 17  1  1  0  0  0
  1  2  2  0  0  0
  2  3  1  0  0  0
  3  4  2  0  0  0
  4  5  1  0  0  0
  5  6  2  0  0  0
  6  7  1  0  0  0
  7  8  2  0  0  0
  8  9  1  0  0  0
  9 10  2  0  0  0
  3 11  1  0  0  0
 11 12  2  0  0  0
 12 13  1  0  0  0
 13 14  2  0  0  0
 14 15  1  0  0  0
 15 16  2  0  0  0
 10  1  1  0  0  0
 10  5  1  0  0  0
 16 11  1  0  0  0
 17 18  1  0  0  0
M  CHG 1  24  -1
M  END
> <minimizedAffinity>
-7.03550

> <newdefault_CNNaffinity>
5.66261

> <newdefault_CNNscore>
0.103282

> <CNNaffinity_times_score>
0.58484566

> <protein>
2v3e

$$$$
49644264


 32 35  0  0  0  0  0  0  0  0999 V2000
   36.9387   27.3361   -7.5353 N   0  0  0  0  0  0  0  0  0  0  0  0
   37.6909   27.6493   -8.7213 C   0  0  0  0  0  0  0  0  0  0  0  0
   37.8169   28.8487   -9.0881 O   0  0  0  0  0  0  0  0  0  0  0  0
   36.6192   26.4120   -7.4203 H   0  0  0  0  0  0  0  0  0  0  0  0
   36.0798   30.2262   -4.5315 C   0  0  0  0  0  0  0  0  0  0  0  0
   35.0605   29.7757   -5.3843 C   0  0  0  0  0  0  0  0  0  0  0  0
   35.3318   28.8238   -6.3708 C   0  0  0  0  0  0  0  0  0  0  0  0
   36.6260   28.2923   -6.5086 C   0  0  0  0  0  0  0  0  0  0  0  0
   37.6462   28.7530   -5.6636 C   0  0  0  0  0  0  0  0  0  0  0  0
   37.3753   29.7071   -4.6786 C   0  0  0  0  0  0  0  0  0  0  0  0
   33.9233   33.4662    0.7151 C   0  0  0  0  0  0  0  0  0  0  0  0
   33.9465   33.7845   -0.7517 C   0  0  0  0  0  0  0  0  0  0  0  0
   33.5709   34.9323   -1.1153 O   0  0  0  0  0  0  0  0  0  0  0  0
   34.3955   32.8242   -1.7386 N   0  0  0  0  0  0  0  0  0  0  0  0
   34.6161   31.4083   -1.3957 C   0  0  0  0  0  0  0  0  0  0  0  0
   35.8668   30.8884   -2.1017 C   0  0  0  0  0  0  0  0  0  0  0  0
   35.8026   31.2199   -3.5280 N   0  0  0  0  0  0  0  0  0  0  0  0
   35.5940   32.6236   -3.8911 C   0  0  0  0  0  0  0  0  0  0  0  0
   34.3575   33.1685   -3.1708 C   0  0  0  0  0  0  0  0  0  0  0  0
   38.2701   26.5565   -9.5933 C   0  0  0  0  0  0  0  0  0  0  0  0
   39.6636   26.8672  -10.1243 C   0  0  0  0  0  0  0  0  0  0  0  0
   39.8212   27.1183  -11.5011 C   0  0  0  0  0  0  0  0  0  0  0  0
   41.0770   27.4336  -12.0294 C   0  0  0  0  0  0  0  0  0  0  0  0
   42.1904   27.5105  -11.1903 C   0  0  0  0  0  0  0  0  0  0  0  0
   42.0494   27.2741   -9.8208 C   0  0  0  0  0  0  0  0  0  0  0  0
   40.7962   26.9580   -9.2861 C   0  0  0  0  0  0  0  0  0  0  0  0
   37.3047   26.1615  -10.6983 C   0  0  0  0  0  0  0  0  0  0  0  0
   36.4780   27.1412  -11.2781 C   0  0  0  0  0  0  0  0  0  0  0  0
   35.5962   26.8064  -12.3103 C   0  0  0  0  0  0  0  0  0  0  0  0
   35.5353   25.4937  -12.7819 C   0  0  0  0  0  0  0  0  0  0  0  0
   36.3583   24.5133  -12.2242 C   0  0  0  0  0  0  0  0  0  0  0  0
   37.2401   24.8417  -11.1901 C   0  0  0  0  0  0  0  0  0  0  0  0
 11 12  1  0  0  0
 12 13  2  0  0  0
 12 14  1  0  0  0
 14 15  1  0  0  0
 15 16  1  0  0  0
 16 17  1  0  0  0
 17 18  1  0  0  0
 18 19  1  0  0  0
 17  5  1  0  0  0
  5  6  2  0  0  0
  6  7  1  0  0  0
  7  8  2  0  0  0
  8  1  1  0  0  0
  1  2  1  0  0  0
  2  3  2  0  0  0
  2 20  1  0  0  0
 20 21  1  0  0  0
 21 22  2  0  0  0
 22 23  1  0  0  0
 23 24  2  0  0  0
 24 25  1  0  0  0
 25 26  2  0  0  0
 20 27  1  0  0  0
 27 28  2  0  0  0
 28 29  1  0  0  0
 29 30  2  0  0  0
 30 31  1  0  0  0
 31 32  2  0  0  0
  8  9  1  0  0  0
  9 10  2  0  0  0
 19 14  1  0  0  0
 10  5  1  0  0  0
 26 21  1  0  0  0
 32 27  1  0  0  0
  1  4  1  0  0  0
M  END
> <minimizedAffinity>
-7.15074

> <newdefault_CNNaffinity>
6.072

> <newdefault_CNNscore>
0.554653

> <CNNaffinity_times_score>
3.367853

> <protein>
2v3e

$$$$
49646912


 29 32  0  0  0  0  0  0  0  0999 V2000
    6.0600   -5.1604   43.4311 C   0  0  0  0  0  0  0  0  0  0  0  0
    5.3465   -4.2665   42.6935 N   0  0  0  0  0  0  0  0  0  0  0  0
    4.0657   -4.4952   42.3030 C   0  0  0  0  0  0  0  0  0  0  0  0
    3.4631   -5.6603   42.6511 N   0  0  0  0  0  0  0  0  0  0  0  0
    4.1093   -6.5994   43.3858 C   0  0  0  0  0  0  0  0  0  0  0  0
    3.4442   -7.7833   43.7243 C   0  0  0  0  0  0  0  0  0  0  0  0
    4.0899   -8.7561   44.4869 C   0  0  0  0  0  0  0  0  0  0  0  0
    5.4005   -8.5495   44.9187 C   0  0  0  0  0  0  0  0  0  0  0  0
    6.0764   -7.3708   44.5898 C   0  0  0  0  0  0  0  0  0  0  0  0
    5.4424   -6.3786   43.8107 C   0  0  0  0  0  0  0  0  0  0  0  0
    3.3358   -3.4819   41.5021 C   0  0  0  0  0  0  0  0  0  0  0  0
    1.9824   -3.1963   41.7696 C   0  0  0  0  0  0  0  0  0  0  0  0
    1.2958   -2.2427   41.0124 C   0  0  0  0  0  0  0  0  0  0  0  0
    1.9474   -1.5645   39.9810 C   0  0  0  0  0  0  0  0  0  0  0  0
    3.2882   -1.8385   39.7040 C   0  0  0  0  0  0  0  0  0  0  0  0
    3.9808   -2.7906   40.4583 C   0  0  0  0  0  0  0  0  0  0  0  0
    7.4197   -4.8378   43.7861 N   0  0  0  0  0  0  0  0  0  0  0  0
    8.1179   -4.9031   43.0951 H   0  0  0  0  0  0  0  0  0  0  0  0
    7.8006   -4.4173   45.1337 C   0  0  0  0  0  0  0  0  0  0  0  0
    5.2501   -1.2350   46.5684 C   0  0  0  0  0  0  0  0  0  0  0  0
    6.1212   -1.0275   45.4916 C   0  0  0  0  0  0  0  0  0  0  0  0
    6.9311   -2.0561   45.0127 C   0  0  0  0  0  0  0  0  0  0  0  0
    6.8803   -3.3240   45.6009 C   0  0  0  0  0  0  0  0  0  0  0  0
    6.0150   -3.5476   46.6801 C   0  0  0  0  0  0  0  0  0  0  0  0
    5.1880   -2.5172   47.1735 C   0  0  0  0  0  0  0  0  0  0  0  0
    4.9188    0.9137   47.8527 C   0  0  0  0  0  0  0  0  0  0  0  0
    4.4882   -0.1285   46.9853 O   0  0  0  0  0  0  0  0  0  0  0  0
    4.3131   -2.7463   48.2471 O   0  0  0  0  0  0  0  0  0  0  0  0
    2.9890   -3.2556   48.1265 C   0  0  0  0  0  0  0  0  0  0  0  0
 26 27  1  0  0  0
 27 20  1  0  0  0
 20 21  2  0  0  0
 21 22  1  0  0  0
 22 23  2  0  0  0
 23 19  1  0  0  0
 19 17  1  0  0  0
 17  1  1  0  0  0
  1  2  2  0  0  0
  2  3  1  0  0  0
  3  4  2  0  0  0
  4  5  1  0  0  0
  5  6  2  0  0  0
  6  7  1  0  0  0
  7  8  2  0  0  0
  8  9  1  0  0  0
  9 10  2  0  0  0
  3 11  1  0  0  0
 11 12  2  0  0  0
 12 13  1  0  0  0
 13 14  2  0  0  0
 14 15  1  0  0  0
 15 16  2  0  0  0
 23 24  1  0  0  0
 24 25  2  0  0  0
 25 28  1  0  0  0
 28 29  1  0  0  0
 25 20  1  0  0  0
 10  1  1  0  0  0
 10  5  1  0  0  0
 16 11  1  0  0  0
 17 18  1  0  0  0
M  END
> <minimizedAffinity>
-7.04969

> <newdefault_CNNaffinity>
5.78324

> <newdefault_CNNscore>
0.60444

> <CNNaffinity_times_score>
3.4956214

> <protein>
3rik

$$$$
49647551


 24 27  0  0  0  0  0  0  0  0999 V2000
   34.9662   31.2555   -2.4130 C   0  0  0  0  0  0  0  0  0  0  0  0
   35.8040   30.3675   -3.0101 N   0  0  0  0  0  0  0  0  0  0  0  0
   35.6418   29.9574   -4.2973 C   0  0  0  0  0  0  0  0  0  0  0  0
   34.5683   30.4853   -5.0530 C   0  0  0  0  0  0  0  0  0  0  0  0
   34.3390   30.1690   -6.4090 C   0  0  0  0  0  0  0  0  0  0  0  0
   33.2526   30.7280   -7.0893 C   0  0  0  0  0  0  0  0  0  0  0  0
   32.3903   31.6107   -6.4370 C   0  0  0  0  0  0  0  0  0  0  0  0
   32.6146   31.9490   -5.1017 C   0  0  0  0  0  0  0  0  0  0  0  0
   33.6993   31.3984   -4.4098 C   0  0  0  0  0  0  0  0  0  0  0  0
   33.9201   31.7555   -3.1197 N   0  0  0  0  0  0  0  0  0  0  0  0
   33.0438   32.7451   -0.8253 F   0  0  0  0  0  0  0  0  0  0  0  0
   34.2332   32.3971   -0.2724 C   0  0  0  0  0  0  0  0  0  0  0  0
   34.4847   32.7730    1.0517 C   0  0  0  0  0  0  0  0  0  0  0  0
   35.6918   32.4337    1.6641 C   0  0  0  0  0  0  0  0  0  0  0  0
   36.6550   31.7157    0.9555 C   0  0  0  0  0  0  0  0  0  0  0  0
   36.4144   31.3348   -0.3673 C   0  0  0  0  0  0  0  0  0  0  0  0
   35.2006   31.6689   -1.0032 C   0  0  0  0  0  0  0  0  0  0  0  0
   36.5605   28.9883   -4.8377 N   0  0  0  0  0  0  0  0  0  0  0  0
   36.2768   28.0491   -4.9191 H   0  0  0  0  0  0  0  0  0  0  0  0
   37.9105   29.3707   -5.2698 C   0  0  0  0  0  0  0  0  0  0  0  0
   37.8734   30.2708   -6.4998 C   0  0  0  0  0  0  0  0  0  0  0  0
   39.1638   29.9900   -7.2656 C   0  0  0  0  0  0  0  0  0  0  0  0
   39.7739   28.7256   -6.6628 C   0  0  0  0  0  0  0  0  0  0  0  0
   38.7393   28.1670   -5.6989 C   0  0  0  0  0  0  0  0  0  0  0  0
 11 12  1  0  0  0
 12 13  2  0  0  0
 13 14  1  0  0  0
 14 15  2  0  0  0
 15 16  1  0  0  0
 16 17  2  0  0  0
 17  1  1  0  0  0
  1  2  2  0  0  0
  2  3  1  0  0  0
  3 18  1  0  0  0
 18 20  1  0  0  0
 20 21  1  0  0  0
 21 22  1  0  0  0
 22 23  1  0  0  0
 23 24  1  0  0  0
  3  4  2  0  0  0
  4  5  1  0  0  0
  5  6  2  0  0  0
  6  7  1  0  0  0
  7  8  2  0  0  0
  8  9  1  0  0  0
  9 10  2  0  0  0
 17 12  1  0  0  0
 10  1  1  0  0  0
 24 20  1  0  0  0
  9  4  1  0  0  0
 18 19  1  0  0  0
M  END
> <minimizedAffinity>
-8.63811

> <newdefault_CNNaffinity>
5.72305

> <newdefault_CNNscore>
0.339785

> <CNNaffinity_times_score>
1.9446067

> <protein>
2v3e

$$$$
49648617


 25 27  0  0  0  0  0  0  0  0999 V2000
    2.5260   -1.4322   40.2965 N   0  0  0  0  0  0  0  0  0  0  0  0
    2.6772   -2.5348   41.1873 C   0  0  0  0  0  0  0  0  0  0  0  0
    1.6354   -3.3750   41.4116 N   0  0  0  0  0  0  0  0  0  0  0  0
    1.7573   -4.4309   42.2550 C   0  0  0  0  0  0  0  0  0  0  0  0
    2.9726   -4.6791   42.9081 C   0  0  0  0  0  0  0  0  0  0  0  0
    4.0422   -3.7851   42.6710 C   0  0  0  0  0  0  0  0  0  0  0  0
    3.8614   -2.7408   41.8185 N   0  0  0  0  0  0  0  0  0  0  0  0
    1.6671   -1.2832   39.8391 H   0  0  0  0  0  0  0  0  0  0  0  0
    3.2805   -0.8197   40.1389 H   0  0  0  0  0  0  0  0  0  0  0  0
    5.3389   -3.9025   43.3729 C   0  0  0  0  0  0  0  0  0  0  0  0
    6.2280   -4.9271   43.0055 C   0  0  0  0  0  0  0  0  0  0  0  0
    7.4473   -5.0792   43.6686 C   0  0  0  0  0  0  0  0  0  0  0  0
    7.7916   -4.2175   44.7124 C   0  0  0  0  0  0  0  0  0  0  0  0
    9.0097   -4.3837   45.3675 O   0  0  0  0  0  0  0  0  0  0  0  0
    6.9113   -3.1955   45.0896 C   0  0  0  0  0  0  0  0  0  0  0  0
    5.6906   -3.0260   44.4250 C   0  0  0  0  0  0  0  0  0  0  0  0
    4.8645   -1.9703   44.8160 O   0  0  0  0  0  0  0  0  0  0  0  0
    9.5916   -5.0706   45.1075 H   0  0  0  0  0  0  0  0  0  0  0  0
    5.1254   -1.4062   45.5173 H   0  0  0  0  0  0  0  0  0  0  0  0
    3.1019   -5.8669   43.7864 C   0  0  0  0  0  0  0  0  0  0  0  0
    3.0279   -5.7345   45.1845 C   0  0  0  0  0  0  0  0  0  0  0  0
    3.1453   -6.8592   46.0066 C   0  0  0  0  0  0  0  0  0  0  0  0
    3.3458   -8.1215   45.4424 C   0  0  0  0  0  0  0  0  0  0  0  0
    3.4328   -8.2609   44.0548 C   0  0  0  0  0  0  0  0  0  0  0  0
    3.3152   -7.1392   43.2284 C   0  0  0  0  0  0  0  0  0  0  0  0
  1  2  1  0  0  0
  2  3  2  0  0  0
  3  4  1  0  0  0
  4  5  2  0  0  0
  5 20  1  0  0  0
 20 21  2  0  0  0
 21 22  1  0  0  0
 22 23  2  0  0  0
 23 24  1  0  0  0
 24 25  2  0  0  0
  5  6  1  0  0  0
  6  7  2  0  0  0
  6 10  1  0  0  0
 10 11  2  0  0  0
 11 12  1  0  0  0
 12 13  2  0  0  0
 13 14  1  0  0  0
 13 15  1  0  0  0
 15 16  2  0  0  0
 16 17  1  0  0  0
  7  2  1  0  0  0
 25 20  1  0  0  0
 16 10  1  0  0  0
  1  8  1  0  0  0
  1  9  1  0  0  0
 14 18  1  0  0  0
 17 19  1  0  0  0
M  END
> <minimizedAffinity>
-5.27128

> <newdefault_CNNaffinity>
4.67384

> <newdefault_CNNscore>
0.216804

> <CNNaffinity_times_score>
1.0133072

> <protein>
3rik

$$$$
49649413


 22 24  0  0  0  0  0  0  0  0999 V2000
    5.3365   -7.8714   44.0333 C   0  0  0  0  0  0  0  0  0  0  0  0
    4.2203   -8.1279   43.2316 C   0  0  0  0  0  0  0  0  0  0  0  0
    3.4535   -7.0483   42.7838 C   0  0  0  0  0  0  0  0  0  0  0  0
    2.2557   -7.2771   41.9182 C   0  0  0  0  0  0  0  0  0  0  0  0
    3.8148   -5.7817   43.1198 N   0  0  0  0  0  0  0  0  0  0  0  0
    4.9088   -5.5379   43.8920 C   0  0  0  0  0  0  0  0  0  0  0  0
    5.6579   -6.5843   44.3336 N   0  0  0  0  0  0  0  0  0  0  0  0
    5.2830   -4.1478   44.2495 C   0  0  0  0  0  0  0  0  0  0  0  0
    6.5364   -3.8700   44.8302 C   0  0  0  0  0  0  0  0  0  0  0  0
    6.8865   -2.5590   45.1677 C   0  0  0  0  0  0  0  0  0  0  0  0
    5.9939   -1.5118   44.9311 C   0  0  0  0  0  0  0  0  0  0  0  0
    4.7483   -1.7730   44.3568 C   0  0  0  0  0  0  0  0  0  0  0  0
    4.3918   -3.0818   44.0172 C   0  0  0  0  0  0  0  0  0  0  0  0
    6.1603   -8.9567   44.4898 N   0  0  0  0  0  0  0  0  0  0  0  0
    7.0744   -8.7493   44.7909 H   0  0  0  0  0  0  0  0  0  0  0  0
    4.4222  -14.4419   44.5751 C   0  0  0  0  0  0  0  0  0  0  0  0
    4.8770  -13.0126   44.5498 C   0  0  0  0  0  0  0  0  0  0  0  0
    5.7951  -12.5665   43.5867 C   0  0  0  0  0  0  0  0  0  0  0  0
    6.2108  -11.2317   43.5751 C   0  0  0  0  0  0  0  0  0  0  0  0
    5.7287  -10.3277   44.5329 C   0  0  0  0  0  0  0  0  0  0  0  0
    4.7893  -10.7711   45.4810 C   0  0  0  0  0  0  0  0  0  0  0  0
    4.3738  -12.1057   45.4930 C   0  0  0  0  0  0  0  0  0  0  0  0
 16 17  1  0  0  0
 17 18  2  0  0  0
 18 19  1  0  0  0
 19 20  2  0  0  0
 20 14  1  0  0  0
 14  1  1  0  0  0
  1  2  2  0  0  0
  2  3  1  0  0  0
  3  4  1  0  0  0
  3  5  2  0  0  0
  5  6  1  0  0  0
  6  7  2  0  0  0
  6  8  1  0  0  0
  8  9  2  0  0  0
  9 10  1  0  0  0
 10 11  2  0  0  0
 11 12  1  0  0  0
 12 13  2  0  0  0
 20 21  1  0  0  0
 21 22  2  0  0  0
 22 17  1  0  0  0
  7  1  1  0  0  0
 13  8  1  0  0  0
 14 15  1  0  0  0
M  END
> <minimizedAffinity>
-5.54318

> <newdefault_CNNaffinity>
4.89725

> <newdefault_CNNscore>
0.206681

> <CNNaffinity_times_score>
1.0121685

> <protein>
3rik

$$$$
49673313


 28 31  0  0  0  0  0  0  0  0999 V2000
    6.0258   -7.1768   43.9825 C   0  0  0  0  0  0  0  0  0  0  0  0
    5.4438   -6.0569   43.4793 N   0  0  0  0  0  0  0  0  0  0  0  0
    4.1787   -6.0619   42.9799 C   0  0  0  0  0  0  0  0  0  0  0  0
    3.4684   -7.2214   42.9741 N   0  0  0  0  0  0  0  0  0  0  0  0
    4.0006   -8.3795   43.4412 C   0  0  0  0  0  0  0  0  0  0  0  0
    3.2483   -9.5589   43.3972 C   0  0  0  0  0  0  0  0  0  0  0  0
    3.8048  -10.7612   43.8404 C   0  0  0  0  0  0  0  0  0  0  0  0
    5.1172  -10.7921   44.3187 C   0  0  0  0  0  0  0  0  0  0  0  0
    5.8765   -9.6190   44.3701 C   0  0  0  0  0  0  0  0  0  0  0  0
    5.3175   -8.3959   43.9525 C   0  0  0  0  0  0  0  0  0  0  0  0
    3.5780   -4.8119   42.4546 C   0  0  0  0  0  0  0  0  0  0  0  0
    4.3789   -3.6937   42.1616 C   0  0  0  0  0  0  0  0  0  0  0  0
    3.7991   -2.5237   41.6681 C   0  0  0  0  0  0  0  0  0  0  0  0
    2.4194   -2.4746   41.4701 C   0  0  0  0  0  0  0  0  0  0  0  0
    1.6526   -3.5592   41.7554 N   0  0  0  0  0  0  0  0  0  0  0  0
    2.1913   -4.7115   42.2368 C   0  0  0  0  0  0  0  0  0  0  0  0
    7.3490   -7.0745   44.5228 N   0  0  0  0  0  0  0  0  0  0  0  0
    8.0651   -7.6289   44.1366 H   0  0  0  0  0  0  0  0  0  0  0  0
    7.6714   -6.1718   45.6313 C   0  0  0  0  0  0  0  0  0  0  0  0
    9.3469   -4.4000   45.6352 O   0  0  0  0  0  0  0  0  0  0  0  0
    8.0878   -4.7720   45.1260 C   0  0  0  0  0  0  0  0  0  0  0  0
    9.9919   -5.0991   45.4453 H   0  0  0  0  0  0  0  0  0  0  0  0
    7.0222   -3.7189   45.3882 C   0  0  0  0  0  0  0  0  0  0  0  0
    5.9371   -3.9503   46.2594 C   0  0  0  0  0  0  0  0  0  0  0  0
    4.9731   -2.9592   46.4677 C   0  0  0  0  0  0  0  0  0  0  0  0
    5.0798   -1.7281   45.8181 C   0  0  0  0  0  0  0  0  0  0  0  0
    6.1533   -1.4829   44.9599 C   0  0  0  0  0  0  0  0  0  0  0  0
    7.1200   -2.4698   44.7467 C   0  0  0  0  0  0  0  0  0  0  0  0
 21 20  1  0  0  0
 21 19  1  0  0  0
 19 17  1  0  0  0
 17  1  1  0  0  0
  1  2  2  0  0  0
  2  3  1  0  0  0
  3  4  2  0  0  0
  4  5  1  0  0  0
  5  6  2  0  0  0
  6  7  1  0  0  0
  7  8  2  0  0  0
  8  9  1  0  0  0
  9 10  2  0  0  0
  3 11  1  0  0  0
 11 12  2  0  0  0
 12 13  1  0  0  0
 13 14  2  0  0  0
 14 15  1  0  0  0
 15 16  2  0  0  0
 21 23  1  0  0  0
 23 24  2  0  0  0
 24 25  1  0  0  0
 25 26  2  0  0  0
 26 27  1  0  0  0
 27 28  2  0  0  0
 10  1  1  0  0  0
 10  5  1  0  0  0
 16 11  1  0  0  0
 28 23  1  0  0  0
 20 22  1  0  0  0
 17 18  1  0  0  0
M  END
> <minimizedAffinity>
-6.91909

> <newdefault_CNNaffinity>
5.64427

> <newdefault_CNNscore>
0.441154

> <CNNaffinity_times_score>
2.4899924

> <protein>
3rik

$$$$
49673358


 33 35  0  0  0  0  0  0  0  0999 V2000
  -35.1232  -16.9124    1.8632 C   0  0  0  0  0  0  0  0  0  0  0  0
  -34.2072  -15.9024    2.1917 C   0  0  0  0  0  0  0  0  0  0  0  0
  -33.4857  -15.9634    3.3844 C   0  0  0  0  0  0  0  0  0  0  0  0
  -33.6630  -17.0342    4.2818 C   0  0  0  0  0  0  0  0  0  0  0  0
  -34.6048  -18.0471    3.9631 C   0  0  0  0  0  0  0  0  0  0  0  0
  -35.3161  -17.9721    2.7572 C   0  0  0  0  0  0  0  0  0  0  0  0
  -36.0098  -17.9408   -0.1370 N   0  0  0  0  0  0  0  0  0  0  0  0
  -35.8882  -16.8775    0.6004 C   0  0  0  0  0  0  0  0  0  0  0  0
  -36.7168  -17.9686   -1.3543 N   0  0  0  0  0  0  0  0  0  0  0  0
  -37.2514  -18.7691   -1.5607 H   0  0  0  0  0  0  0  0  0  0  0  0
  -35.4851  -16.1873   -2.5495 N   0  0  0  0  0  0  0  0  0  0  0  0
  -36.7046  -16.8968   -2.3149 C   0  0  0  0  0  0  0  0  0  0  0  0
  -37.7990  -16.5112   -2.8991 N   0  0  0  0  0  0  0  0  0  0  0  0
  -35.4614  -15.4519   -3.2036 H   0  0  0  0  0  0  0  0  0  0  0  0
  -34.6693  -16.4344   -2.0568 H   0  0  0  0  0  0  0  0  0  0  0  0
  -37.7749  -15.7766   -3.5541 H   0  0  0  0  0  0  0  0  0  0  0  0
  -38.6525  -16.9537   -2.6868 H   0  0  0  0  0  0  0  0  0  0  0  0
  -32.9249  -17.1132    5.4750 O   0  0  0  0  0  0  0  0  0  0  0  0
  -33.0413  -16.2315    6.5905 C   0  0  0  0  0  0  0  0  0  0  0  0
  -31.8798  -16.4075    7.5325 C   0  0  0  0  0  0  0  0  0  0  0  0
  -30.7200  -17.0849    7.1208 C   0  0  0  0  0  0  0  0  0  0  0  0
  -29.6472  -17.2420    8.0041 C   0  0  0  0  0  0  0  0  0  0  0  0
  -29.7228  -16.7209    9.2983 C   0  0  0  0  0  0  0  0  0  0  0  0
  -30.8700  -16.0395    9.7126 C   0  0  0  0  0  0  0  0  0  0  0  0
  -31.9440  -15.8785    8.8329 C   0  0  0  0  0  0  0  0  0  0  0  0
  -34.8828  -19.1528    4.7874 O   0  0  0  0  0  0  0  0  0  0  0  0
  -35.4127  -19.1178    6.1102 C   0  0  0  0  0  0  0  0  0  0  0  0
  -36.9111  -19.2206    6.0439 C   0  0  0  0  0  0  0  0  0  0  0  0
  -37.7024  -18.5618    6.9999 C   0  0  0  0  0  0  0  0  0  0  0  0
  -39.0957  -18.6741    6.9591 C   0  0  0  0  0  0  0  0  0  0  0  0
  -39.7095  -19.4395    5.9626 C   0  0  0  0  0  0  0  0  0  0  0  0
  -38.9297  -20.0941    5.0055 C   0  0  0  0  0  0  0  0  0  0  0  0
  -37.5346  -19.9857    5.0436 C   0  0  0  0  0  0  0  0  0  0  0  0
 11 12  1  0  0  0
 12 13  2  0  0  0
 12  9  1  0  0  0
  9  7  1  0  0  0
  7  8  2  0  0  0
  8  1  1  0  0  0
  1  2  2  0  0  0
  2  3  1  0  0  0
  3  4  2  0  0  0
  4 18  1  0  0  0
 18 19  1  0  0  0
 19 20  1  0  0  0
 20 21  2  0  0  0
 21 22  1  0  0  0
 22 23  2  0  0  0
 23 24  1  0  0  0
 24 25  2  0  0  0
  4  5  1  0  0  0
  5 26  1  0  0  0
 26 27  1  0  0  0
 27 28  1  0  0  0
 28 29  2  0  0  0
 29 30  1  0  0  0
 30 31  2  0  0  0
 31 32  1  0  0  0
 32 33  2  0  0  0
  5  6  2  0  0  0
  6  1  1  0  0  0
 25 20  1  0  0  0
 33 28  1  0  0  0
 11 14  1  0  0  0
 11 15  1  0  0  0
 13 16  1  0  0  0
 13 17  1  0  0  0
  9 10  1  0  0  0
M  CHG 1  13   1
M  END
> <minimizedAffinity>
-8.43787

> <newdefault_CNNaffinity>
6.42155

> <newdefault_CNNscore>
0.920125

> <CNNaffinity_times_score>
5.9086285

> <protein>
2xwe

$$$$
49679507


 33 35  0  0  0  0  0  0  0  0999 V2000
  -11.4740   -6.0917   40.1297 C   0  0  0  0  0  0  0  0  0  0  0  0
  -10.9573   -7.4948   40.2950 C   0  0  0  0  0  0  0  0  0  0  0  0
  -11.0887   -8.3209   41.4156 C   0  0  0  0  0  0  0  0  0  0  0  0
  -11.8341   -7.9954   42.6723 C   0  0  0  0  0  0  0  0  0  0  0  0
  -10.4899   -9.5151   41.2003 N   0  0  0  0  0  0  0  0  0  0  0  0
   -9.9659   -9.4482   39.9646 C   0  0  0  0  0  0  0  0  0  0  0  0
   -9.2486  -10.4409   39.3030 C   0  0  0  0  0  0  0  0  0  0  0  0
   -8.7911  -10.1692   38.0032 C   0  0  0  0  0  0  0  0  0  0  0  0
   -9.0592   -8.9150   37.3863 C   0  0  0  0  0  0  0  0  0  0  0  0
   -9.7887   -7.9366   38.0906 C   0  0  0  0  0  0  0  0  0  0  0  0
  -10.2264   -8.2351   39.3814 C   0  0  0  0  0  0  0  0  0  0  0  0
  -10.4469  -10.2772   41.8219 H   0  0  0  0  0  0  0  0  0  0  0  0
   -8.6236   -8.6033   36.0867 O   0  0  0  0  0  0  0  0  0  0  0  0
   -7.5729   -9.2678   35.3884 C   0  0  0  0  0  0  0  0  0  0  0  0
   -6.4170   -9.2607   36.1489 F   0  0  0  0  0  0  0  0  0  0  0  0
   -7.9462  -10.5774   35.1562 F   0  0  0  0  0  0  0  0  0  0  0  0
   -7.3434   -8.6478   34.1721 F   0  0  0  0  0  0  0  0  0  0  0  0
  -10.3331   -5.0697   40.2598 C   0  0  0  0  0  0  0  0  0  0  0  0
   -9.8491   -4.6031   38.9477 N   0  0  0  0  0  0  0  0  0  0  0  0
  -10.2149   -5.2214   38.2237 H   0  0  0  0  0  0  0  0  0  0  0  0
  -10.1739   -3.6452   38.8162 H   0  0  0  0  0  0  0  0  0  0  0  0
   -8.3780   -4.5973   38.8681 C   0  0  0  0  0  0  0  0  0  0  0  0
   -8.0222   -4.1505   35.0627 C   0  0  0  0  0  0  0  0  0  0  0  0
   -7.0036   -5.0839   34.7988 C   0  0  0  0  0  0  0  0  0  0  0  0
   -6.4702   -5.8522   35.8308 C   0  0  0  0  0  0  0  0  0  0  0  0
   -6.9258   -5.6880   37.1374 C   0  0  0  0  0  0  0  0  0  0  0  0
   -7.9196   -4.7428   37.4339 C   0  0  0  0  0  0  0  0  0  0  0  0
   -8.4863   -3.9838   36.3786 C   0  0  0  0  0  0  0  0  0  0  0  0
   -9.5127   -3.0605   36.5977 O   0  0  0  0  0  0  0  0  0  0  0  0
   -9.8447   -2.9256   37.4634 H   0  0  0  0  0  0  0  0  0  0  0  0
   -8.5967   -3.3592   34.0527 O   0  0  0  0  0  0  0  0  0  0  0  0
   -7.2660   -1.3320   34.2660 C   0  0  0  0  0  0  0  0  0  0  0  0
   -7.9331   -2.3276   33.3230 C   0  0  0  0  0  0  0  0  0  0  0  0
 32 33  1  0  0  0
 33 31  1  0  0  0
 31 23  1  0  0  0
 23 24  2  0  0  0
 24 25  1  0  0  0
 25 26  2  0  0  0
 26 27  1  0  0  0
 27 22  1  0  0  0
 22 19  1  0  0  0
 19 18  1  0  0  0
 18  1  1  0  0  0
  1  2  1  0  0  0
  2  3  2  0  0  0
  3  4  1  0  0  0
  3  5  1  0  0  0
  5  6  1  0  0  0
  6  7  2  0  0  0
  7  8  1  0  0  0
  8  9  2  0  0  0
  9 13  1  0  0  0
 13 14  1  0  0  0
 14 15  1  0  0  0
 14 16  1  0  0  0
 14 17  1  0  0  0
  9 10  1  0  0  0
 10 11  2  0  0  0
 27 28  2  0  0  0
 28 29  1  0  0  0
 28 23  1  0  0  0
 11  2  1  0  0  0
 11  6  1  0  0  0
 19 20  1  0  0  0
 19 21  1  0  0  0
  5 12  1  0  0  0
 29 30  1  0  0  0
M  CHG 1  19   1
M  END
> <minimizedAffinity>
-7.65749

> <newdefault_CNNaffinity>
6.50824

> <newdefault_CNNscore>
0.526241

> <CNNaffinity_times_score>
3.424903

> <protein>
3ril

$$$$
49679878


 26 28  0  0  0  0  0  0  0  0999 V2000
  -37.9504  -18.5111    4.2148 N   0  0  0  0  0  0  0  0  0  0  0  0
  -38.6406  -18.3068    3.5431 H   0  0  0  0  0  0  0  0  0  0  0  0
  -36.6404  -17.9564    4.0151 C   0  0  0  0  0  0  0  0  0  0  0  0
  -35.6673  -17.9892    5.0235 C   0  0  0  0  0  0  0  0  0  0  0  0
  -34.4050  -17.4539    4.7544 C   0  0  0  0  0  0  0  0  0  0  0  0
  -33.3313  -17.4834    5.7948 C   0  0  0  0  0  0  0  0  0  0  0  0
  -34.1371  -16.9517    3.5205 N   0  0  0  0  0  0  0  0  0  0  0  0
  -35.0788  -16.9432    2.5378 C   0  0  0  0  0  0  0  0  0  0  0  0
  -36.3155  -17.4500    2.7963 N   0  0  0  0  0  0  0  0  0  0  0  0
  -34.7589  -16.3931    1.1972 C   0  0  0  0  0  0  0  0  0  0  0  0
  -33.6121  -15.5977    1.0031 C   0  0  0  0  0  0  0  0  0  0  0  0
  -33.3116  -15.0837   -0.2621 C   0  0  0  0  0  0  0  0  0  0  0  0
  -34.1484  -15.3554   -1.3465 C   0  0  0  0  0  0  0  0  0  0  0  0
  -35.2866  -16.1443   -1.1688 C   0  0  0  0  0  0  0  0  0  0  0  0
  -35.5929  -16.6612    0.0939 C   0  0  0  0  0  0  0  0  0  0  0  0
  -39.0526  -20.9103    7.5573 C   0  0  0  0  0  0  0  0  0  0  0  0
  -39.7472  -19.7252    7.2593 C   0  0  0  0  0  0  0  0  0  0  0  0
  -39.3800  -18.9462    6.1584 C   0  0  0  0  0  0  0  0  0  0  0  0
  -38.3254  -19.3434    5.3257 C   0  0  0  0  0  0  0  0  0  0  0  0
  -37.6128  -20.5136    5.6350 C   0  0  0  0  0  0  0  0  0  0  0  0
  -37.9781  -21.2941    6.7356 C   0  0  0  0  0  0  0  0  0  0  0  0
  -39.4451  -21.7334    8.7224 C   0  0  0  0  0  0  0  0  0  0  0  0
  -39.7611  -21.1788    9.8111 O   0  0  0  0  0  0  0  0  0  0  0  0
  -39.4729  -23.1298    8.6107 O   0  0  0  0  0  0  0  0  0  0  0  0
  -37.4641  -24.4802    8.3860 C   0  0  0  0  0  0  0  0  0  0  0  0
  -38.5785  -23.9957    9.3072 C   0  0  0  0  0  0  0  0  0  0  0  0
 25 26  1  0  0  0
 26 24  1  0  0  0
 24 22  1  0  0  0
 22 23  2  0  0  0
 22 16  1  0  0  0
 16 17  2  0  0  0
 17 18  1  0  0  0
 18 19  2  0  0  0
 19  1  1  0  0  0
  1  3  1  0  0  0
  3  4  2  0  0  0
  4  5  1  0  0  0
  5  6  1  0  0  0
  5  7  2  0  0  0
  7  8  1  0  0  0
  8  9  2  0  0  0
  8 10  1  0  0  0
 10 11  2  0  0  0
 11 12  1  0  0  0
 12 13  2  0  0  0
 13 14  1  0  0  0
 14 15  2  0  0  0
 19 20  1  0  0  0
 20 21  2  0  0  0
 21 16  1  0  0  0
  9  3  1  0  0  0
 15 10  1  0  0  0
  1  2  1  0  0  0
M  END
> <minimizedAffinity>
-7.89015

> <newdefault_CNNaffinity>
5.35956

> <newdefault_CNNscore>
0.248086

> <CNNaffinity_times_score>
1.3296318

> <protein>
2xwe

$$$$
49714273


 34 36  0  0  0  0  0  0  0  0999 V2000
   34.5837   32.1717   -3.7845 N   0  0  0  0  0  0  0  0  0  0  0  0
   34.3758   32.5940   -5.1377 C   0  0  0  0  0  0  0  0  0  0  0  0
   33.1201   32.4390   -5.7378 C   0  0  0  0  0  0  0  0  0  0  0  0
   32.9105   32.8704   -7.0506 C   0  0  0  0  0  0  0  0  0  0  0  0
   33.9513   33.4557   -7.7815 C   0  0  0  0  0  0  0  0  0  0  0  0
   35.2168   33.5998   -7.1800 C   0  0  0  0  0  0  0  0  0  0  0  0
   35.4247   33.1680   -5.8673 C   0  0  0  0  0  0  0  0  0  0  0  0
   33.6893   33.8778   -9.0933 O   0  0  0  0  0  0  0  0  0  0  0  0
   32.5368   33.5046   -9.8414 C   0  0  0  0  0  0  0  0  0  0  0  0
   34.7316   33.3588   -2.5234 S   0  0  0  0  0  0  0  0  0  0  0  0
   33.3898   33.9890   -2.2719 O   0  0  0  0  0  0  0  0  0  0  0  0
   35.6706   34.4430   -2.9696 O   0  0  0  0  0  0  0  0  0  0  0  0
   35.3024   32.5953   -1.0205 C   0  0  0  0  0  0  0  0  0  0  0  0
   34.5722   32.6527    0.1914 C   0  0  0  0  0  0  0  0  0  0  0  0
   33.2337   33.3209    0.3042 C   0  0  0  0  0  0  0  0  0  0  0  0
   35.0818   32.0635    1.3063 N   0  0  0  0  0  0  0  0  0  0  0  0
   36.2847   31.4395    1.2941 C   0  0  0  0  0  0  0  0  0  0  0  0
   36.7723   30.8500    2.4520 O   0  0  0  0  0  0  0  0  0  0  0  0
   37.0134   31.3951    0.1535 N   0  0  0  0  0  0  0  0  0  0  0  0
   36.5586   31.9602   -0.9935 C   0  0  0  0  0  0  0  0  0  0  0  0
   37.3596   31.9107   -2.1277 O   0  0  0  0  0  0  0  0  0  0  0  0
   34.5365   30.7483   -3.4448 C   0  0  0  0  0  0  0  0  0  0  0  0
   36.8604   30.2826   -4.3459 N   0  0  0  0  0  0  0  0  0  0  0  0
   35.4637   29.9494   -4.3155 C   0  0  0  0  0  0  0  0  0  0  0  0
   35.0252   28.9697   -4.9788 O   0  0  0  0  0  0  0  0  0  0  0  0
   37.1877   30.9573   -3.7079 H   0  0  0  0  0  0  0  0  0  0  0  0
   39.6284   28.5552   -7.0802 C   0  0  0  0  0  0  0  0  0  0  0  0
   39.0488   29.8074   -7.3387 C   0  0  0  0  0  0  0  0  0  0  0  0
   38.1410   30.3659   -6.4344 C   0  0  0  0  0  0  0  0  0  0  0  0
   37.8109   29.6927   -5.2495 C   0  0  0  0  0  0  0  0  0  0  0  0
   38.3740   28.4280   -5.0007 C   0  0  0  0  0  0  0  0  0  0  0  0
   39.2824   27.8689   -5.9053 C   0  0  0  0  0  0  0  0  0  0  0  0
   40.0210   27.8662   -9.4526 C   0  0  0  0  0  0  0  0  0  0  0  0
   40.6156   27.9605   -8.0507 C   0  0  0  0  0  0  0  0  0  0  0  0
 33 34  1  0  0  0
 34 27  1  0  0  0
 27 28  2  0  0  0
 28 29  1  0  0  0
 29 30  2  0  0  0
 30 23  1  0  0  0
 23 24  1  0  0  0
 24 25  2  0  0  0
 24 22  1  0  0  0
 22  1  1  0  0  0
  1  2  1  0  0  0
  2  3  2  0  0  0
  3  4  1  0  0  0
  4  5  2  0  0  0
  5  8  1  0  0  0
  8  9  1  0  0  0
  5  6  1  0  0  0
  6  7  2  0  0  0
  1 10  1  0  0  0
 10 11  2  0  0  0
 10 12  2  0  0  0
 10 13  1  0  0  0
 13 14  2  0  0  0
 14 15  1  0  0  0
 14 16  1  0  0  0
 16 17  2  0  0  0
 17 18  1  0  0  0
 17 19  1  0  0  0
 19 20  2  0  0  0
 20 21  1  0  0  0
 30 31  1  0  0  0
 31 32  2  0  0  0
 32 27  1  0  0  0
  7  2  1  0  0  0
 20 13  1  0  0  0
 23 26  1  0  0  0
M  CHG 1  18  -1
M  CHG 1  21  -1
M  END
> <minimizedAffinity>
-7.30806

> <newdefault_CNNaffinity>
6.52717

> <newdefault_CNNscore>
0.151225

> <CNNaffinity_times_score>
0.98707134

> <protein>
2v3d

$$$$
49714295


 35 37  0  0  0  0  0  0  0  0999 V2000
    4.4471   -4.3780   43.1859 N   0  0  0  0  0  0  0  0  0  0  0  0
    2.4709   -1.8464   40.3857 C   0  0  0  0  0  0  0  0  0  0  0  0
    3.7088   -2.4342   40.0631 C   0  0  0  0  0  0  0  0  0  0  0  0
    4.3615   -3.2558   40.9862 C   0  0  0  0  0  0  0  0  0  0  0  0
    3.7913   -3.5071   42.2443 C   0  0  0  0  0  0  0  0  0  0  0  0
    2.5531   -2.9273   42.5598 C   0  0  0  0  0  0  0  0  0  0  0  0
    1.9010   -2.1054   41.6371 C   0  0  0  0  0  0  0  0  0  0  0  0
    1.7688   -1.0156   39.4968 O   0  0  0  0  0  0  0  0  0  0  0  0
    0.1010    0.6475   38.8858 C   0  0  0  0  0  0  0  0  0  0  0  0
    1.2709    0.2886   39.7966 C   0  0  0  0  0  0  0  0  0  0  0  0
    3.5145   -5.5008   44.1327 S   0  0  0  0  0  0  0  0  0  0  0  0
    3.4351   -5.0356   45.5603 O   0  0  0  0  0  0  0  0  0  0  0  0
    2.1194   -5.5523   43.5767 O   0  0  0  0  0  0  0  0  0  0  0  0
    4.2910   -7.1007   44.1024 C   0  0  0  0  0  0  0  0  0  0  0  0
    3.9463   -8.0669   43.1285 C   0  0  0  0  0  0  0  0  0  0  0  0
    2.9208   -7.8049   42.0642 C   0  0  0  0  0  0  0  0  0  0  0  0
    4.5576   -9.2813   43.1433 N   0  0  0  0  0  0  0  0  0  0  0  0
    5.4900   -9.5945   44.0754 C   0  0  0  0  0  0  0  0  0  0  0  0
    6.0943  -10.8437   44.0595 O   0  0  0  0  0  0  0  0  0  0  0  0
    5.8309   -8.6890   45.0238 N   0  0  0  0  0  0  0  0  0  0  0  0
    5.2575   -7.4596   45.0620 C   0  0  0  0  0  0  0  0  0  0  0  0
    5.6409   -6.5763   46.0627 O   0  0  0  0  0  0  0  0  0  0  0  0
    5.9077   -4.3715   43.3194 C   0  0  0  0  0  0  0  0  0  0  0  0
    6.3091   -3.6599   44.5764 C   0  0  0  0  0  0  0  0  0  0  0  0
    7.4698   -3.8353   45.0359 O   0  0  0  0  0  0  0  0  0  0  0  0
    5.4046   -2.7349   45.2014 N   0  0  0  0  0  0  0  0  0  0  0  0
    4.5524   -2.5425   44.7474 H   0  0  0  0  0  0  0  0  0  0  0  0
    5.6696   -2.0738   46.4495 C   0  0  0  0  0  0  0  0  0  0  0  0
    6.0979   -0.7357   46.4936 C   0  0  0  0  0  0  0  0  0  0  0  0
    6.3700   -0.1215   47.7197 C   0  0  0  0  0  0  0  0  0  0  0  0
    6.2394   -0.8406   48.9177 C   0  0  0  0  0  0  0  0  0  0  0  0
    5.8182   -2.1786   48.8737 C   0  0  0  0  0  0  0  0  0  0  0  0
    5.5481   -2.7927   47.6475 C   0  0  0  0  0  0  0  0  0  0  0  0
    6.5022   -0.1690   50.2390 C   0  0  0  0  0  0  0  0  0  0  0  0
    7.5433    0.9351   50.0860 C   0  0  0  0  0  0  0  0  0  0  0  0
  9 10  1  0  0  0
 10  8  1  0  0  0
  8  2  1  0  0  0
  2  3  2  0  0  0
  3  4  1  0  0  0
  4  5  2  0  0  0
  5  6  1  0  0  0
  6  7  2  0  0  0
  5  1  1  0  0  0
  1 23  1  0  0  0
 23 24  1  0  0  0
 24 25  2  0  0  0
 24 26  1  0  0  0
 26 28  1  0  0  0
 28 29  2  0  0  0
 29 30  1  0  0  0
 30 31  2  0  0  0
 31 34  1  0  0  0
 34 35  1  0  0  0
 31 32  1  0  0  0
 32 33  2  0  0  0
  1 11  1  0  0  0
 11 12  2  0  0  0
 11 13  2  0  0  0
 11 14  1  0  0  0
 14 15  2  0  0  0
 15 16  1  0  0  0
 15 17  1  0  0  0
 17 18  2  0  0  0
 18 19  1  0  0  0
 18 20  1  0  0  0
 20 21  2  0  0  0
 21 22  1  0  0  0
  7  2  1  0  0  0
 33 28  1  0  0  0
 21 14  1  0  0  0
 26 27  1  0  0  0
M  CHG 1  19  -1
M  CHG 1  22  -1
M  END
> <minimizedAffinity>
-6.01419

> <newdefault_CNNaffinity>
5.55641

> <newdefault_CNNscore>
0.200612

> <CNNaffinity_times_score>
1.1146824

> <protein>
3rik

$$$$
49714298


 34 36  0  0  0  0  0  0  0  0999 V2000
  -34.6188  -16.4216    3.4573 N   0  0  0  0  0  0  0  0  0  0  0  0
  -32.3118  -15.7500    6.9620 C   0  0  0  0  0  0  0  0  0  0  0  0
  -33.6555  -15.3309    6.9005 C   0  0  0  0  0  0  0  0  0  0  0  0
  -34.4117  -15.5531    5.7454 C   0  0  0  0  0  0  0  0  0  0  0  0
  -33.8395  -16.1948    4.6392 C   0  0  0  0  0  0  0  0  0  0  0  0
  -32.5029  -16.6085    4.6973 C   0  0  0  0  0  0  0  0  0  0  0  0
  -31.7467  -16.3895    5.8517 C   0  0  0  0  0  0  0  0  0  0  0  0
  -31.5097  -15.5671    8.1006 O   0  0  0  0  0  0  0  0  0  0  0  0
  -29.8257  -16.0019    9.7983 C   0  0  0  0  0  0  0  0  0  0  0  0
  -30.8034  -16.5979    8.7909 C   0  0  0  0  0  0  0  0  0  0  0  0
  -34.9787  -15.0954    2.3937 S   0  0  0  0  0  0  0  0  0  0  0  0
  -33.7592  -14.2282    2.2462 O   0  0  0  0  0  0  0  0  0  0  0  0
  -36.0659  -14.2401    2.9827 O   0  0  0  0  0  0  0  0  0  0  0  0
  -35.4855  -15.7375    0.8157 C   0  0  0  0  0  0  0  0  0  0  0  0
  -34.7604  -15.4804   -0.3730 C   0  0  0  0  0  0  0  0  0  0  0  0
  -33.4896  -14.6840   -0.3897 C   0  0  0  0  0  0  0  0  0  0  0  0
  -35.2061  -15.9911   -1.5520 N   0  0  0  0  0  0  0  0  0  0  0  0
  -36.3439  -16.7241   -1.6231 C   0  0  0  0  0  0  0  0  0  0  0  0
  -36.7668  -17.2312   -2.8443 O   0  0  0  0  0  0  0  0  0  0  0  0
  -37.0687  -16.9606   -0.5032 N   0  0  0  0  0  0  0  0  0  0  0  0
  -36.6732  -16.4842    0.7046 C   0  0  0  0  0  0  0  0  0  0  0  0
  -37.4661  -16.7387    1.8173 O   0  0  0  0  0  0  0  0  0  0  0  0
  -34.9616  -17.7880    3.0578 C   0  0  0  0  0  0  0  0  0  0  0  0
  -35.7794  -18.4602    4.1187 C   0  0  0  0  0  0  0  0  0  0  0  0
  -35.3700  -19.5433    4.6161 O   0  0  0  0  0  0  0  0  0  0  0  0
  -36.9990  -17.8590    4.5810 N   0  0  0  0  0  0  0  0  0  0  0  0
  -37.2643  -16.9933    4.1946 H   0  0  0  0  0  0  0  0  0  0  0  0
  -37.8542  -18.4467    5.5740 C   0  0  0  0  0  0  0  0  0  0  0  0
  -37.5698  -18.2292    6.9307 C   0  0  0  0  0  0  0  0  0  0  0  0
  -38.3864  -18.7800    7.9231 C   0  0  0  0  0  0  0  0  0  0  0  0
  -39.4993  -19.5446    7.5682 C   0  0  0  0  0  0  0  0  0  0  0  0
  -39.8083  -19.7459    6.2212 C   0  0  0  0  0  0  0  0  0  0  0  0
  -38.9982  -19.1927    5.2223 C   0  0  0  0  0  0  0  0  0  0  0  0
  -39.3599  -19.3455    3.9256 F   0  0  0  0  0  0  0  0  0  0  0  0
  9 10  1  0  0  0
 10  8  1  0  0  0
  8  2  1  0  0  0
  2  3  2  0  0  0
  3  4  1  0  0  0
  4  5  2  0  0  0
  5  6  1  0  0  0
  6  7  2  0  0  0
  5  1  1  0  0  0
  1 23  1  0  0  0
 23 24  1  0  0  0
 24 25  2  0  0  0
 24 26  1  0  0  0
 26 28  1  0  0  0
 28 29  2  0  0  0
 29 30  1  0  0  0
 30 31  2  0  0  0
 31 32  1  0  0  0
 32 33  2  0  0  0
 33 34  1  0  0  0
  1 11  1  0  0  0
 11 12  2  0  0  0
 11 13  2  0  0  0
 11 14  1  0  0  0
 14 15  2  0  0  0
 15 16  1  0  0  0
 15 17  1  0  0  0
 17 18  2  0  0  0
 18 19  1  0  0  0
 18 20  1  0  0  0
 20 21  2  0  0  0
 21 22  1  0  0  0
  7  2  1  0  0  0
 33 28  1  0  0  0
 21 14  1  0  0  0
 26 27  1  0  0  0
M  CHG 1  19  -1
M  CHG 1  22  -1
M  END
> <minimizedAffinity>
-8.20190

> <newdefault_CNNaffinity>
6.46995

> <newdefault_CNNscore>
0.337236

> <CNNaffinity_times_score>
2.1819

> <protein>
2xwe

$$$$
49715043


 34 36  0  0  0  0  0  0  0  0999 V2000
  -35.2112  -16.0839    2.9838 N   0  0  0  0  0  0  0  0  0  0  0  0
  -35.7604  -15.2174    3.9862 C   0  0  0  0  0  0  0  0  0  0  0  0
  -35.0128  -14.8897    5.1249 C   0  0  0  0  0  0  0  0  0  0  0  0
  -35.5641  -14.0779    6.1265 C   0  0  0  0  0  0  0  0  0  0  0  0
  -34.7500  -13.7173    7.3347 C   0  0  0  0  0  0  0  0  0  0  0  0
  -36.8582  -13.5604    5.9633 C   0  0  0  0  0  0  0  0  0  0  0  0
  -37.6072  -13.8681    4.8172 C   0  0  0  0  0  0  0  0  0  0  0  0
  -39.0107  -13.3597    4.6696 C   0  0  0  0  0  0  0  0  0  0  0  0
  -37.0594  -14.7123    3.8404 C   0  0  0  0  0  0  0  0  0  0  0  0
  -34.4807  -15.3661    1.5793 S   0  0  0  0  0  0  0  0  0  0  0  0
  -33.0337  -15.7719    1.5272 O   0  0  0  0  0  0  0  0  0  0  0  0
  -34.5377  -13.8678    1.6892 O   0  0  0  0  0  0  0  0  0  0  0  0
  -35.3451  -15.8642    0.1067 C   0  0  0  0  0  0  0  0  0  0  0  0
  -34.8952  -15.4827   -1.1789 C   0  0  0  0  0  0  0  0  0  0  0  0
  -33.6789  -14.6302   -1.3848 C   0  0  0  0  0  0  0  0  0  0  0  0
  -35.5647  -15.9163   -2.2805 N   0  0  0  0  0  0  0  0  0  0  0  0
  -36.6745  -16.6872   -2.1767 C   0  0  0  0  0  0  0  0  0  0  0  0
  -37.3352  -17.1082   -3.3223 O   0  0  0  0  0  0  0  0  0  0  0  0
  -37.1435  -17.0408   -0.9548 N   0  0  0  0  0  0  0  0  0  0  0  0
  -36.5112  -16.6518    0.1813 C   0  0  0  0  0  0  0  0  0  0  0  0
  -37.0448  -17.0344    1.4055 O   0  0  0  0  0  0  0  0  0  0  0  0
  -34.9197  -17.4802    3.3176 C   0  0  0  0  0  0  0  0  0  0  0  0
  -37.2448  -18.0011    4.2135 N   0  0  0  0  0  0  0  0  0  0  0  0
  -35.8215  -17.9628    4.4132 C   0  0  0  0  0  0  0  0  0  0  0  0
  -35.3197  -18.3006    5.5188 O   0  0  0  0  0  0  0  0  0  0  0  0
  -37.6062  -17.5941    3.3932 H   0  0  0  0  0  0  0  0  0  0  0  0
  -39.9349  -19.8393    6.9538 C   0  0  0  0  0  0  0  0  0  0  0  0
  -39.5035  -20.5188    5.8034 C   0  0  0  0  0  0  0  0  0  0  0  0
  -38.6253  -19.9036    4.9068 C   0  0  0  0  0  0  0  0  0  0  0  0
  -38.1738  -18.5958    5.1353 C   0  0  0  0  0  0  0  0  0  0  0  0
  -38.5911  -17.9213    6.2968 C   0  0  0  0  0  0  0  0  0  0  0  0
  -39.4728  -18.5348    7.1919 C   0  0  0  0  0  0  0  0  0  0  0  0
  -40.1534  -21.4559    8.8558 C   0  0  0  0  0  0  0  0  0  0  0  0
  -40.8865  -20.5001    7.9184 C   0  0  0  0  0  0  0  0  0  0  0  0
 33 34  1  0  0  0
 34 27  1  0  0  0
 27 28  2  0  0  0
 28 29  1  0  0  0
 29 30  2  0  0  0
 30 23  1  0  0  0
 23 24  1  0  0  0
 24 25  2  0  0  0
 24 22  1  0  0  0
 22  1  1  0  0  0
  1  2  1  0  0  0
  2  3  2  0  0  0
  3  4  1  0  0  0
  4  5  1  0  0  0
  4  6  2  0  0  0
  6  7  1  0  0  0
  7  8  1  0  0  0
  7  9  2  0  0  0
  1 10  1  0  0  0
 10 11  2  0  0  0
 10 12  2  0  0  0
 10 13  1  0  0  0
 13 14  2  0  0  0
 14 15  1  0  0  0
 14 16  1  0  0  0
 16 17  2  0  0  0
 17 18  1  0  0  0
 17 19  1  0  0  0
 19 20  2  0  0  0
 20 21  1  0  0  0
 30 31  1  0  0  0
 31 32  2  0  0  0
 32 27  1  0  0  0
  9  2  1  0  0  0
 20 13  1  0  0  0
 23 26  1  0  0  0
M  CHG 1  18  -1
M  CHG 1  21  -1
M  END
> <minimizedAffinity>
-8.60199

> <newdefault_CNNaffinity>
6.82751

> <newdefault_CNNscore>
0.483056

> <CNNaffinity_times_score>
3.2980697

> <protein>
2xwe

$$$$
49715081


 33 35  0  0  0  0  0  0  0  0999 V2000
  -34.6883  -16.2714    2.9297 N   0  0  0  0  0  0  0  0  0  0  0  0
  -34.5083  -14.1130    7.4247 C   0  0  0  0  0  0  0  0  0  0  0  0
  -33.8721  -14.9255    6.3352 C   0  0  0  0  0  0  0  0  0  0  0  0
  -32.5761  -15.4325    6.5135 C   0  0  0  0  0  0  0  0  0  0  0  0
  -31.9732  -16.2086    5.5118 C   0  0  0  0  0  0  0  0  0  0  0  0
  -30.5825  -16.7377    5.6934 C   0  0  0  0  0  0  0  0  0  0  0  0
  -32.6614  -16.4461    4.3140 C   0  0  0  0  0  0  0  0  0  0  0  0
  -33.9619  -15.9541    4.1284 C   0  0  0  0  0  0  0  0  0  0  0  0
  -34.5633  -15.1909    5.1409 C   0  0  0  0  0  0  0  0  0  0  0  0
  -35.2606  -14.9778    1.9155 S   0  0  0  0  0  0  0  0  0  0  0  0
  -34.1999  -13.9176    1.8395 O   0  0  0  0  0  0  0  0  0  0  0  0
  -36.4973  -14.3707    2.5169 O   0  0  0  0  0  0  0  0  0  0  0  0
  -35.6940  -15.6441    0.3225 C   0  0  0  0  0  0  0  0  0  0  0  0
  -34.9396  -15.4358   -0.8594 C   0  0  0  0  0  0  0  0  0  0  0  0
  -33.6926  -14.6031   -0.9014 C   0  0  0  0  0  0  0  0  0  0  0  0
  -35.3543  -16.0088   -2.0217 N   0  0  0  0  0  0  0  0  0  0  0  0
  -36.4686  -16.7788   -2.0798 C   0  0  0  0  0  0  0  0  0  0  0  0
  -36.8581  -17.3459   -3.2851 O   0  0  0  0  0  0  0  0  0  0  0  0
  -37.2012  -16.9966   -0.9616 N   0  0  0  0  0  0  0  0  0  0  0  0
  -36.8413  -16.4527    0.2281 C   0  0  0  0  0  0  0  0  0  0  0  0
  -37.6204  -16.7112    1.3514 O   0  0  0  0  0  0  0  0  0  0  0  0
  -34.9032  -17.6644    2.5286 C   0  0  0  0  0  0  0  0  0  0  0  0
  -35.7317  -18.3791    3.5517 C   0  0  0  0  0  0  0  0  0  0  0  0
  -35.2427  -19.3680    4.1608 O   0  0  0  0  0  0  0  0  0  0  0  0
  -37.0834  -17.9620    3.7983 N   0  0  0  0  0  0  0  0  0  0  0  0
  -37.4743  -17.2811    3.2043 H   0  0  0  0  0  0  0  0  0  0  0  0
  -37.8988  -18.4808    4.8618 C   0  0  0  0  0  0  0  0  0  0  0  0
  -38.0342  -17.7905    6.0830 C   0  0  0  0  0  0  0  0  0  0  0  0
  -38.8698  -18.2921    7.0872 C   0  0  0  0  0  0  0  0  0  0  0  0
  -39.5813  -19.4800    6.8801 C   0  0  0  0  0  0  0  0  0  0  0  0
  -40.7287  -20.1548    8.2519 Br  0  0  0  0  0  0  0  0  0  0  0  0
  -39.4595  -20.1639    5.6650 C   0  0  0  0  0  0  0  0  0  0  0  0
  -38.6301  -19.6615    4.6563 C   0  0  0  0  0  0  0  0  0  0  0  0
  2  3  1  0  0  0
  3  4  2  0  0  0
  4  5  1  0  0  0
  5  6  1  0  0  0
  5  7  2  0  0  0
  7  8  1  0  0  0
  8  9  2  0  0  0
  8  1  1  0  0  0
  1 22  1  0  0  0
 22 23  1  0  0  0
 23 24  2  0  0  0
 23 25  1  0  0  0
 25 27  1  0  0  0
 27 28  2  0  0  0
 28 29  1  0  0  0
 29 30  2  0  0  0
 30 31  1  0  0  0
 30 32  1  0  0  0
 32 33  2  0  0  0
  1 10  1  0  0  0
 10 11  2  0  0  0
 10 12  2  0  0  0
 10 13  1  0  0  0
 13 14  2  0  0  0
 14 15  1  0  0  0
 14 16  1  0  0  0
 16 17  2  0  0  0
 17 18  1  0  0  0
 17 19  1  0  0  0
 19 20  2  0  0  0
 20 21  1  0  0  0
  9  3  1  0  0  0
 33 27  1  0  0  0
 20 13  1  0  0  0
 25 26  1  0  0  0
M  CHG 1  18  -1
M  CHG 1  21  -1
M  END
> <minimizedAffinity>
-9.18696

> <newdefault_CNNaffinity>
6.66383

> <newdefault_CNNscore>
0.464041

> <CNNaffinity_times_score>
3.0922902

> <protein>
2xwe

$$$$
49715093


 34 36  0  0  0  0  0  0  0  0999 V2000
  -34.5533  -16.5552    3.3291 N   0  0  0  0  0  0  0  0  0  0  0  0
  -33.7110  -16.2484    4.4510 C   0  0  0  0  0  0  0  0  0  0  0  0
  -32.3584  -16.6213    4.4455 C   0  0  0  0  0  0  0  0  0  0  0  0
  -31.5344  -16.3245    5.5421 C   0  0  0  0  0  0  0  0  0  0  0  0
  -30.0988  -16.7628    5.5475 C   0  0  0  0  0  0  0  0  0  0  0  0
  -32.0810  -15.6825    6.6653 C   0  0  0  0  0  0  0  0  0  0  0  0
  -33.4369  -15.3202    6.6861 C   0  0  0  0  0  0  0  0  0  0  0  0
  -34.0140  -14.5967    7.8673 C   0  0  0  0  0  0  0  0  0  0  0  0
  -34.2423  -15.5898    5.5693 C   0  0  0  0  0  0  0  0  0  0  0  0
  -35.3752  -15.2672    2.4974 S   0  0  0  0  0  0  0  0  0  0  0  0
  -34.5720  -14.0032    2.6091 O   0  0  0  0  0  0  0  0  0  0  0  0
  -36.7111  -15.0109    3.1391 O   0  0  0  0  0  0  0  0  0  0  0  0
  -35.6543  -15.7535    0.8098 C   0  0  0  0  0  0  0  0  0  0  0  0
  -34.7841  -15.4155   -0.2571 C   0  0  0  0  0  0  0  0  0  0  0  0
  -33.5305  -14.6178   -0.0629 C   0  0  0  0  0  0  0  0  0  0  0  0
  -35.0817  -15.8324   -1.5174 N   0  0  0  0  0  0  0  0  0  0  0  0
  -36.1849  -16.5761   -1.7795 C   0  0  0  0  0  0  0  0  0  0  0  0
  -36.4572  -16.9797   -3.0798 O   0  0  0  0  0  0  0  0  0  0  0  0
  -37.0185  -16.9319   -0.7717 N   0  0  0  0  0  0  0  0  0  0  0  0
  -36.7769  -16.5469    0.5073 C   0  0  0  0  0  0  0  0  0  0  0  0
  -37.6508  -16.9559    1.5092 O   0  0  0  0  0  0  0  0  0  0  0  0
  -34.8537  -17.9484    2.9828 C   0  0  0  0  0  0  0  0  0  0  0  0
  -37.1681  -18.1269    4.0087 N   0  0  0  0  0  0  0  0  0  0  0  0
  -35.8006  -18.5624    3.9722 C   0  0  0  0  0  0  0  0  0  0  0  0
  -35.3705  -19.3833    4.8287 O   0  0  0  0  0  0  0  0  0  0  0  0
  -37.4778  -17.4874    3.3273 H   0  0  0  0  0  0  0  0  0  0  0  0
  -40.8399  -20.0961    7.9686 C   0  0  0  0  0  0  0  0  0  0  0  0
  -39.8918  -19.5757    6.9293 C   0  0  0  0  0  0  0  0  0  0  0  0
  -39.6231  -20.3150    5.7680 C   0  0  0  0  0  0  0  0  0  0  0  0
  -38.7283  -19.8251    4.8141 C   0  0  0  0  0  0  0  0  0  0  0  0
  -38.1018  -18.5847    4.9965 C   0  0  0  0  0  0  0  0  0  0  0  0
  -38.3549  -17.8486    6.1720 C   0  0  0  0  0  0  0  0  0  0  0  0
  -37.5090  -16.3489    6.5213 Cl  0  0  0  0  0  0  0  0  0  0  0  0
  -39.2519  -18.3450    7.1258 C   0  0  0  0  0  0  0  0  0  0  0  0
 27 28  1  0  0  0
 28 29  2  0  0  0
 29 30  1  0  0  0
 30 31  2  0  0  0
 31 23  1  0  0  0
 23 24  1  0  0  0
 24 25  2  0  0  0
 24 22  1  0  0  0
 22  1  1  0  0  0
  1  2  1  0  0  0
  2  3  2  0  0  0
  3  4  1  0  0  0
  4  5  1  0  0  0
  4  6  2  0  0  0
  6  7  1  0  0  0
  7  8  1  0  0  0
  7  9  2  0  0  0
  1 10  1  0  0  0
 10 11  2  0  0  0
 10 12  2  0  0  0
 10 13  1  0  0  0
 13 14  2  0  0  0
 14 15  1  0  0  0
 14 16  1  0  0  0
 16 17  2  0  0  0
 17 18  1  0  0  0
 17 19  1  0  0  0
 19 20  2  0  0  0
 20 21  1  0  0  0
 31 32  1  0  0  0
 32 33  1  0  0  0
 32 34  2  0  0  0
 34 28  1  0  0  0
  9  2  1  0  0  0
 20 13  1  0  0  0
 23 26  1  0  0  0
M  CHG 1  18  -1
M  CHG 1  21  -1
M  END
> <minimizedAffinity>
-9.09457

> <newdefault_CNNaffinity>
6.51374

> <newdefault_CNNscore>
0.332063

> <CNNaffinity_times_score>
2.162972

> <protein>
2xwe

$$$$
49715125


 36 38  0  0  0  0  0  0  0  0999 V2000
    5.0223   -2.7578   44.9267 N   0  0  0  0  0  0  0  0  0  0  0  0
    0.8723   -4.8981   43.2025 C   0  0  0  0  0  0  0  0  0  0  0  0
    2.1317   -4.1263   42.9519 C   0  0  0  0  0  0  0  0  0  0  0  0
    2.5059   -3.7569   41.6490 C   0  0  0  0  0  0  0  0  0  0  0  0
    3.6859   -3.0343   41.4272 C   0  0  0  0  0  0  0  0  0  0  0  0
    4.0958   -2.6818   40.0283 C   0  0  0  0  0  0  0  0  0  0  0  0
    4.5171   -2.7117   42.5104 C   0  0  0  0  0  0  0  0  0  0  0  0
    4.1581   -3.0797   43.8188 C   0  0  0  0  0  0  0  0  0  0  0  0
    2.9523   -3.7700   44.0306 C   0  0  0  0  0  0  0  0  0  0  0  0
    5.4926   -3.9842   46.0757 S   0  0  0  0  0  0  0  0  0  0  0  0
    6.7122   -3.5271   46.8265 O   0  0  0  0  0  0  0  0  0  0  0  0
    4.3629   -4.1566   47.0516 O   0  0  0  0  0  0  0  0  0  0  0  0
    5.9080   -5.5036   45.2378 C   0  0  0  0  0  0  0  0  0  0  0  0
    6.9799   -5.6260   44.3179 C   0  0  0  0  0  0  0  0  0  0  0  0
    7.8650   -4.4777   43.9365 C   0  0  0  0  0  0  0  0  0  0  0  0
    7.2331   -6.8342   43.7459 N   0  0  0  0  0  0  0  0  0  0  0  0
    6.4794   -7.9258   44.0233 C   0  0  0  0  0  0  0  0  0  0  0  0
    6.7723   -9.1411   43.4207 O   0  0  0  0  0  0  0  0  0  0  0  0
    5.4420   -7.8303   44.8884 N   0  0  0  0  0  0  0  0  0  0  0  0
    5.1383   -6.6540   45.4917 C   0  0  0  0  0  0  0  0  0  0  0  0
    4.0540   -6.6071   46.3595 O   0  0  0  0  0  0  0  0  0  0  0  0
    5.4229   -1.3680   45.1816 C   0  0  0  0  0  0  0  0  0  0  0  0
    5.2667   -0.9915   46.6257 C   0  0  0  0  0  0  0  0  0  0  0  0
    4.1177   -0.8318   47.1260 O   0  0  0  0  0  0  0  0  0  0  0  0
    6.4399   -0.7802   47.4261 N   0  0  0  0  0  0  0  0  0  0  0  0
    7.3155   -0.8201   46.9778 H   0  0  0  0  0  0  0  0  0  0  0  0
    6.4209   -0.5149   48.8363 C   0  0  0  0  0  0  0  0  0  0  0  0
    6.5616   -1.5810   49.7361 C   0  0  0  0  0  0  0  0  0  0  0  0
    6.5365   -1.3541   51.1168 C   0  0  0  0  0  0  0  0  0  0  0  0
    6.3773   -0.0508   51.6232 C   0  0  0  0  0  0  0  0  0  0  0  0
    6.1941    1.0116   50.7221 C   0  0  0  0  0  0  0  0  0  0  0  0
    6.2141    0.7821   49.3412 C   0  0  0  0  0  0  0  0  0  0  0  0
    6.3160    0.2062   53.1094 C   0  0  0  0  0  0  0  0  0  0  0  0
    7.3353    1.0698   53.4633 F   0  0  0  0  0  0  0  0  0  0  0  0
    6.4689   -0.9821   53.8077 F   0  0  0  0  0  0  0  0  0  0  0  0
    5.1019    0.7690   53.4720 F   0  0  0  0  0  0  0  0  0  0  0  0
  2  3  1  0  0  0
  3  4  2  0  0  0
  4  5  1  0  0  0
  5  6  1  0  0  0
  5  7  2  0  0  0
  7  8  1  0  0  0
  8  9  2  0  0  0
  8  1  1  0  0  0
  1 22  1  0  0  0
 22 23  1  0  0  0
 23 24  2  0  0  0
 23 25  1  0  0  0
 25 27  1  0  0  0
 27 28  2  0  0  0
 28 29  1  0  0  0
 29 30  2  0  0  0
 30 31  1  0  0  0
 31 32  2  0  0  0
 30 33  1  0  0  0
 33 34  1  0  0  0
 33 35  1  0  0  0
 33 36  1  0  0  0
  1 10  1  0  0  0
 10 11  2  0  0  0
 10 12  2  0  0  0
 10 13  1  0  0  0
 13 14  2  0  0  0
 14 15  1  0  0  0
 14 16  1  0  0  0
 16 17  2  0  0  0
 17 18  1  0  0  0
 17 19  1  0  0  0
 19 20  2  0  0  0
 20 21  1  0  0  0
  9  3  1  0  0  0
 32 27  1  0  0  0
 20 13  1  0  0  0
 25 26  1  0  0  0
M  CHG 1  18  -1
M  CHG 1  21  -1
M  END
> <minimizedAffinity>
-7.43877

> <newdefault_CNNaffinity>
5.85048

> <newdefault_CNNscore>
0.285501

> <CNNaffinity_times_score>
1.6703179

> <protein>
3rik

$$$$
49716346


 39 43  0  0  0  0  0  0  0  0999 V2000
    4.6227    1.8737   49.6653 N   0  0  0  0  0  0  0  0  0  0  0  0
    4.2074    1.4703   48.3419 C   0  0  0  0  0  0  0  0  0  0  0  0
    3.2653    2.0671   47.7529 O   0  0  0  0  0  0  0  0  0  0  0  0
    4.8938    0.3354   47.7002 C   0  0  0  0  0  0  0  0  0  0  0  0
    4.2485   -0.4915   46.8590 C   0  0  0  0  0  0  0  0  0  0  0  0
    6.6201    0.1420   48.1513 S   0  0  0  0  0  0  0  0  0  0  0  0
    6.1928   -0.0253   49.8873 C   0  0  0  0  0  0  0  0  0  0  0  0
    6.7442   -1.0668   50.6412 C   0  0  0  0  0  0  0  0  0  0  0  0
    6.4655   -1.1645   52.0067 C   0  0  0  0  0  0  0  0  0  0  0  0
    5.6302   -0.2255   52.6196 C   0  0  0  0  0  0  0  0  0  0  0  0
    5.0562    0.8038   51.8658 C   0  0  0  0  0  0  0  0  0  0  0  0
    5.3225    0.9093   50.4892 C   0  0  0  0  0  0  0  0  0  0  0  0
    4.8543   -1.6856   46.2324 C   0  0  0  0  0  0  0  0  0  0  0  0
    4.8583   -2.9353   46.8786 C   0  0  0  0  0  0  0  0  0  0  0  0
    5.4077   -4.0553   46.2486 C   0  0  0  0  0  0  0  0  0  0  0  0
    5.9455   -3.9532   44.9532 C   0  0  0  0  0  0  0  0  0  0  0  0
    5.9013   -2.7109   44.2937 C   0  0  0  0  0  0  0  0  0  0  0  0
    5.3568   -1.5900   44.9282 C   0  0  0  0  0  0  0  0  0  0  0  0
    6.4910   -5.1449   44.2617 C   0  0  0  0  0  0  0  0  0  0  0  0
    7.0342   -5.0116   43.1305 O   0  0  0  0  0  0  0  0  0  0  0  0
    6.4022   -6.4506   44.8574 N   0  0  0  0  0  0  0  0  0  0  0  0
    6.2699   -6.5240   45.8302 H   0  0  0  0  0  0  0  0  0  0  0  0
    6.5028   -7.6724   44.0606 C   0  0  0  0  0  0  0  0  0  0  0  0
    5.1371   -8.3869   44.0321 C   0  0  0  0  0  0  0  0  0  0  0  0
    5.1241   -9.7019   43.3433 N   0  0  0  0  0  0  0  0  0  0  0  0
    3.7657  -10.2469   43.1278 C   0  0  0  0  0  0  0  0  0  0  0  0
    3.8276  -11.6529   42.4862 C   0  0  0  0  0  0  0  0  0  0  0  0
    5.1443  -11.9851   42.0869 O   0  0  0  0  0  0  0  0  0  0  0  0
    5.9944  -12.0307   43.2198 C   0  0  0  0  0  0  0  0  0  0  0  0
    5.9838  -10.7016   44.0115 C   0  0  0  0  0  0  0  0  0  0  0  0
    5.5164   -9.5118   42.4212 H   0  0  0  0  0  0  0  0  0  0  0  0
    4.3842    3.2454   50.1413 C   0  0  0  0  0  0  0  0  0  0  0  0
    7.0616    3.5117   51.1995 F   0  0  0  0  0  0  0  0  0  0  0  0
    6.7199    4.2485   50.1128 C   0  0  0  0  0  0  0  0  0  0  0  0
    7.6802    5.0806   49.5284 C   0  0  0  0  0  0  0  0  0  0  0  0
    7.3570    5.8472   48.4058 C   0  0  0  0  0  0  0  0  0  0  0  0
    6.0711    5.7854   47.8630 C   0  0  0  0  0  0  0  0  0  0  0  0
    5.1075    4.9541   48.4396 C   0  0  0  0  0  0  0  0  0  0  0  0
    5.4221    4.1804   49.5724 C   0  0  0  0  0  0  0  0  0  0  0  0
 33 34  1  0  0  0
 34 35  2  0  0  0
 35 36  1  0  0  0
 36 37  2  0  0  0
 37 38  1  0  0  0
 38 39  2  0  0  0
 39 32  1  0  0  0
 32  1  1  0  0  0
  1  2  1  0  0  0
  2  3  2  0  0  0
  2  4  1  0  0  0
  4  5  2  0  0  0
  5 13  1  0  0  0
 13 14  2  0  0  0
 14 15  1  0  0  0
 15 16  2  0  0  0
 16 17  1  0  0  0
 17 18  2  0  0  0
 16 19  1  0  0  0
 19 20  2  0  0  0
 19 21  1  0  0  0
 21 23  1  0  0  0
 23 24  1  0  0  0
 24 25  1  0  0  0
 25 26  1  0  0  0
 26 27  1  0  0  0
 27 28  1  0  0  0
 28 29  1  0  0  0
 29 30  1  0  0  0
  4  6  1  0  0  0
  6  7  1  0  0  0
  7  8  2  0  0  0
  8  9  1  0  0  0
  9 10  2  0  0  0
 10 11  1  0  0  0
 11 12  2  0  0  0
 39 34  1  0  0  0
 12  1  1  0  0  0
 18 13  1  0  0  0
 30 25  1  0  0  0
 12  7  1  0  0  0
 21 22  1  0  0  0
 25 31  1  0  0  0
M  CHG 1  25   1
M  END
> <minimizedAffinity>
-6.86260

> <newdefault_CNNaffinity>
6.00232

> <newdefault_CNNscore>
0.402209

> <CNNaffinity_times_score>
2.4141872

> <protein>
3rik

$$$$
49717205


 31 34  0  0  0  0  0  0  0  0999 V2000
    3.7785   -8.0006   44.1742 S   0  0  0  0  0  0  0  0  0  0  0  0
    3.8849   -8.2465   42.6951 O   0  0  0  0  0  0  0  0  0  0  0  0
    2.3334   -7.7692   44.5193 O   0  0  0  0  0  0  0  0  0  0  0  0
    4.7325   -6.5798   44.5870 C   0  0  0  0  0  0  0  0  0  0  0  0
    6.1177   -6.5910   44.4104 C   0  0  0  0  0  0  0  0  0  0  0  0
    6.8731   -5.4606   44.7222 C   0  0  0  0  0  0  0  0  0  0  0  0
    6.2578   -4.2907   45.1941 C   0  0  0  0  0  0  0  0  0  0  0  0
    7.0978   -3.1772   45.5449 N   0  0  0  0  0  0  0  0  0  0  0  0
    6.7856   -1.8115   45.2469 C   0  0  0  0  0  0  0  0  0  0  0  0
    7.6153   -0.9084   45.5371 O   0  0  0  0  0  0  0  0  0  0  0  0
    5.4922   -1.4402   44.6036 C   0  0  0  0  0  0  0  0  0  0  0  0
    4.3803   -1.7911   45.5335 C   0  0  0  0  0  0  0  0  0  0  0  0
    3.6272   -0.8799   45.9706 O   0  0  0  0  0  0  0  0  0  0  0  0
    4.1523   -3.1472   45.9347 N   0  0  0  0  0  0  0  0  0  0  0  0
    4.8503   -4.2772   45.3821 C   0  0  0  0  0  0  0  0  0  0  0  0
    4.1087   -5.4325   45.0890 C   0  0  0  0  0  0  0  0  0  0  0  0
    7.9397   -3.3654   46.0193 H   0  0  0  0  0  0  0  0  0  0  0  0
    3.4770   -3.3162   46.6309 H   0  0  0  0  0  0  0  0  0  0  0  0
    4.6726  -11.7973   44.7573 C   0  0  0  0  0  0  0  0  0  0  0  0
    5.1885  -10.3939   44.4022 C   0  0  0  0  0  0  0  0  0  0  0  0
    4.3544   -9.3847   45.0665 N   0  0  0  0  0  0  0  0  0  0  0  0
    4.0200   -9.5887   46.4569 C   0  0  0  0  0  0  0  0  0  0  0  0
    3.5920   -8.5393   47.2923 C   0  0  0  0  0  0  0  0  0  0  0  0
    3.3166   -8.7818   48.6428 C   0  0  0  0  0  0  0  0  0  0  0  0
    2.7947   -7.4664   49.6799 Cl  0  0  0  0  0  0  0  0  0  0  0  0
    3.4680  -10.0683   49.1696 C   0  0  0  0  0  0  0  0  0  0  0  0
    3.8929  -11.1154   48.3486 C   0  0  0  0  0  0  0  0  0  0  0  0
    4.1623  -10.8807   46.9972 C   0  0  0  0  0  0  0  0  0  0  0  0
    4.5887  -11.9328   46.1790 O   0  0  0  0  0  0  0  0  0  0  0  0
    4.9156  -14.2561   44.1956 C   0  0  0  0  0  0  0  0  0  0  0  0
    5.5883  -12.8852   44.1795 C   0  0  0  0  0  0  0  0  0  0  0  0
 30 31  1  0  0  0
 19 31  1  0  0  0
 19 20  1  0  0  0
 20 21  1  0  0  0
 21 22  1  0  0  0
 22 23  2  0  0  0
 23 24  1  0  0  0
 24 25  1  0  0  0
 24 26  2  0  0  0
 26 27  1  0  0  0
 27 28  2  0  0  0
 28 29  1  0  0  0
 21  1  1  0  0  0
  1  2  2  0  0  0
  1  3  2  0  0  0
  1  4  1  0  0  0
  4  5  2  0  0  0
  5  6  1  0  0  0
  6  7  2  0  0  0
  7  8  1  0  0  0
  8  9  1  0  0  0
  9 10  2  0  0  0
  9 11  1  0  0  0
 11 12  1  0  0  0
 12 13  2  0  0  0
 12 14  1  0  0  0
 14 15  1  0  0  0
 15 16  2  0  0  0
 29 19  1  0  0  0
 28 22  1  0  0  0
 16  4  1  0  0  0
 15  7  1  0  0  0
  8 17  1  0  0  0
 14 18  1  0  0  0
M  END
> <minimizedAffinity>
-6.65129

> <newdefault_CNNaffinity>
5.61143

> <newdefault_CNNscore>
0.27353

> <CNNaffinity_times_score>
1.5348946

> <protein>
3rik

$$$$
49730583


 36 38  0  0  0  0  0  0  0  0999 V2000
    5.7106   -4.9110   44.9445 N   0  0  0  0  0  0  0  0  0  0  0  0
    2.8595   -3.6070   42.0653 C   0  0  0  0  0  0  0  0  0  0  0  0
    4.2367   -3.5623   41.7739 C   0  0  0  0  0  0  0  0  0  0  0  0
    5.1713   -3.9977   42.7176 C   0  0  0  0  0  0  0  0  0  0  0  0
    4.7494   -4.4760   43.9676 C   0  0  0  0  0  0  0  0  0  0  0  0
    3.3783   -4.5177   44.2574 C   0  0  0  0  0  0  0  0  0  0  0  0
    2.4437   -4.0844   43.3135 C   0  0  0  0  0  0  0  0  0  0  0  0
    1.8754   -3.1794   41.1588 O   0  0  0  0  0  0  0  0  0  0  0  0
    1.6445   -1.2055   39.7551 C   0  0  0  0  0  0  0  0  0  0  0  0
    1.3221   -1.8646   41.0925 C   0  0  0  0  0  0  0  0  0  0  0  0
    6.5829   -3.6965   45.8389 S   0  0  0  0  0  0  0  0  0  0  0  0
    7.2390   -4.3124   47.0429 O   0  0  0  0  0  0  0  0  0  0  0  0
    7.6704   -3.1464   44.9596 O   0  0  0  0  0  0  0  0  0  0  0  0
    5.4967   -2.3966   46.3836 C   0  0  0  0  0  0  0  0  0  0  0  0
    5.7360   -1.0405   46.0583 C   0  0  0  0  0  0  0  0  0  0  0  0
    6.9096   -0.6050   45.2326 C   0  0  0  0  0  0  0  0  0  0  0  0
    4.8740   -0.0843   46.4960 N   0  0  0  0  0  0  0  0  0  0  0  0
    3.7947   -0.3954   47.2539 C   0  0  0  0  0  0  0  0  0  0  0  0
    2.9361    0.6071   47.6831 O   0  0  0  0  0  0  0  0  0  0  0  0
    3.5556   -1.6841   47.5959 N   0  0  0  0  0  0  0  0  0  0  0  0
    4.3757   -2.6847   47.1865 C   0  0  0  0  0  0  0  0  0  0  0  0
    4.0915   -3.9848   47.5847 O   0  0  0  0  0  0  0  0  0  0  0  0
    5.6731   -6.2903   45.4495 C   0  0  0  0  0  0  0  0  0  0  0  0
    6.6355   -7.1697   44.6995 C   0  0  0  0  0  0  0  0  0  0  0  0
    7.8449   -6.8230   44.6311 O   0  0  0  0  0  0  0  0  0  0  0  0
    6.2252   -8.3830   44.0486 N   0  0  0  0  0  0  0  0  0  0  0  0
    6.7972   -8.7308   43.3268 H   0  0  0  0  0  0  0  0  0  0  0  0
    5.0178   -9.1381   44.3825 C   0  0  0  0  0  0  0  0  0  0  0  0
    4.0482   -9.0872   43.2344 C   0  0  0  0  0  0  0  0  0  0  0  0
    3.6310  -10.2749   42.6148 C   0  0  0  0  0  0  0  0  0  0  0  0
    2.7292  -10.2350   41.5478 C   0  0  0  0  0  0  0  0  0  0  0  0
    2.2299   -9.0130   41.0832 C   0  0  0  0  0  0  0  0  0  0  0  0
    2.6480   -7.8202   41.7040 C   0  0  0  0  0  0  0  0  0  0  0  0
    3.5504   -7.8594   42.7715 C   0  0  0  0  0  0  0  0  0  0  0  0
    1.3268   -9.0267   40.0101 O   0  0  0  0  0  0  0  0  0  0  0  0
    1.6650   -9.4057   38.6799 C   0  0  0  0  0  0  0  0  0  0  0  0
  9 10  1  0  0  0
 10  8  1  0  0  0
  8  2  1  0  0  0
  2  3  2  0  0  0
  3  4  1  0  0  0
  4  5  2  0  0  0
  5  6  1  0  0  0
  6  7  2  0  0  0
  5  1  1  0  0  0
  1 23  1  0  0  0
 23 24  1  0  0  0
 24 25  2  0  0  0
 24 26  1  0  0  0
 26 28  1  0  0  0
 28 29  1  0  0  0
 29 30  2  0  0  0
 30 31  1  0  0  0
 31 32  2  0  0  0
 32 35  1  0  0  0
 35 36  1  0  0  0
 32 33  1  0  0  0
 33 34  2  0  0  0
  1 11  1  0  0  0
 11 12  2  0  0  0
 11 13  2  0  0  0
 11 14  1  0  0  0
 14 15  2  0  0  0
 15 16  1  0  0  0
 15 17  1  0  0  0
 17 18  2  0  0  0
 18 19  1  0  0  0
 18 20  1  0  0  0
 20 21  2  0  0  0
 21 22  1  0  0  0
  7  2  1  0  0  0
 34 29  1  0  0  0
 21 14  1  0  0  0
 26 27  1  0  0  0
M  CHG 1  19  -1
M  CHG 1  22  -1
M  END
> <minimizedAffinity>
-5.81924

> <newdefault_CNNaffinity>
5.57051

> <newdefault_CNNscore>
0.238256

> <CNNaffinity_times_score>
1.3272074

> <protein>
3rik

$$$$
49734415


 34 36  0  0  0  0  0  0  0  0999 V2000
    5.1922   -2.6765   44.7535 N   0  0  0  0  0  0  0  0  0  0  0  0
    0.8735   -4.6740   43.3080 C   0  0  0  0  0  0  0  0  0  0  0  0
    2.1640   -3.9874   42.9701 C   0  0  0  0  0  0  0  0  0  0  0  0
    2.4894   -3.6833   41.6395 C   0  0  0  0  0  0  0  0  0  0  0  0
    3.6933   -3.0310   41.3347 C   0  0  0  0  0  0  0  0  0  0  0  0
    4.0570   -2.7476   39.9073 C   0  0  0  0  0  0  0  0  0  0  0  0
    4.5875   -2.7119   42.3669 C   0  0  0  0  0  0  0  0  0  0  0  0
    4.2730   -3.0122   43.7005 C   0  0  0  0  0  0  0  0  0  0  0  0
    3.0573   -3.6475   43.9955 C   0  0  0  0  0  0  0  0  0  0  0  0
    5.5563   -3.8433   45.9933 S   0  0  0  0  0  0  0  0  0  0  0  0
    6.7238   -3.3388   46.7942 O   0  0  0  0  0  0  0  0  0  0  0  0
    4.3794   -3.9975   46.9159 O   0  0  0  0  0  0  0  0  0  0  0  0
    5.9033   -5.4250   45.2579 C   0  0  0  0  0  0  0  0  0  0  0  0
    7.0673   -5.6358   44.4823 C   0  0  0  0  0  0  0  0  0  0  0  0
    8.0791   -4.5540   44.2380 C   0  0  0  0  0  0  0  0  0  0  0  0
    7.3078   -6.8661   43.9556 N   0  0  0  0  0  0  0  0  0  0  0  0
    6.4505   -7.8984   44.1445 C   0  0  0  0  0  0  0  0  0  0  0  0
    6.7276   -9.1404   43.5904 O   0  0  0  0  0  0  0  0  0  0  0  0
    5.3232   -7.7184   44.8737 N   0  0  0  0  0  0  0  0  0  0  0  0
    5.0294   -6.5162   45.4306 C   0  0  0  0  0  0  0  0  0  0  0  0
    3.8573   -6.3913   46.1652 O   0  0  0  0  0  0  0  0  0  0  0  0
    5.6738   -1.3007   44.9044 C   0  0  0  0  0  0  0  0  0  0  0  0
    5.1554   -0.7134   46.1803 C   0  0  0  0  0  0  0  0  0  0  0  0
    3.9099   -0.6281   46.3591 O   0  0  0  0  0  0  0  0  0  0  0  0
    6.0666   -0.2850   47.2023 N   0  0  0  0  0  0  0  0  0  0  0  0
    7.0344   -0.3749   47.0453 H   0  0  0  0  0  0  0  0  0  0  0  0
    5.6143    0.2699   48.4455 C   0  0  0  0  0  0  0  0  0  0  0  0
    4.9696    1.5120   48.4240 C   0  0  0  0  0  0  0  0  0  0  0  0
    4.5414    2.1079   49.6074 C   0  0  0  0  0  0  0  0  0  0  0  0
    4.7557    1.4723   50.8284 C   0  0  0  0  0  0  0  0  0  0  0  0
    5.3903    0.2204   50.8815 C   0  0  0  0  0  0  0  0  0  0  0  0
    5.5907   -0.4351   52.2237 C   0  0  0  0  0  0  0  0  0  0  0  0
    5.7867   -0.4156   49.6756 C   0  0  0  0  0  0  0  0  0  0  0  0
    6.3944   -1.7998   49.7050 C   0  0  0  0  0  0  0  0  0  0  0  0
  2  3  1  0  0  0
  3  4  2  0  0  0
  4  5  1  0  0  0
  5  6  1  0  0  0
  5  7  2  0  0  0
  7  8  1  0  0  0
  8  9  2  0  0  0
  8  1  1  0  0  0
  1 22  1  0  0  0
 22 23  1  0  0  0
 23 24  2  0  0  0
 23 25  1  0  0  0
 25 27  1  0  0  0
 27 28  2  0  0  0
 28 29  1  0  0  0
 29 30  2  0  0  0
 30 31  1  0  0  0
 31 32  1  0  0  0
 31 33  2  0  0  0
 33 34  1  0  0  0
  1 10  1  0  0  0
 10 11  2  0  0  0
 10 12  2  0  0  0
 10 13  1  0  0  0
 13 14  2  0  0  0
 14 15  1  0  0  0
 14 16  1  0  0  0
 16 17  2  0  0  0
 17 18  1  0  0  0
 17 19  1  0  0  0
 19 20  2  0  0  0
 20 21  1  0  0  0
  9  3  1  0  0  0
 33 27  1  0  0  0
 20 13  1  0  0  0
 25 26  1  0  0  0
M  CHG 1  18  -1
M  CHG 1  21  -1
M  END
> <minimizedAffinity>
-6.78400

> <newdefault_CNNaffinity>
5.9895

> <newdefault_CNNscore>
0.252314

> <CNNaffinity_times_score>
1.5112348

> <protein>
3rik

$$$$
49735207


 32 35  0  0  0  0  0  0  0  0999 V2000
    1.5385   -4.2272   47.0303 S   0  0  0  0  0  0  0  0  0  0  0  0
    1.1603   -5.6805   47.1100 O   0  0  0  0  0  0  0  0  0  0  0  0
    1.2101   -3.5771   48.3465 O   0  0  0  0  0  0  0  0  0  0  0  0
    3.2706   -4.1148   46.7255 C   0  0  0  0  0  0  0  0  0  0  0  0
    4.0498   -3.1699   47.3980 C   0  0  0  0  0  0  0  0  0  0  0  0
    5.4195   -3.0846   47.1454 C   0  0  0  0  0  0  0  0  0  0  0  0
    6.0411   -3.9533   46.2339 C   0  0  0  0  0  0  0  0  0  0  0  0
    7.4476   -3.7815   45.9856 N   0  0  0  0  0  0  0  0  0  0  0  0
    8.3752   -4.8640   45.8426 C   0  0  0  0  0  0  0  0  0  0  0  0
    9.6037   -4.6146   45.7116 O   0  0  0  0  0  0  0  0  0  0  0  0
    7.9103   -6.2818   45.8375 C   0  0  0  0  0  0  0  0  0  0  0  0
    7.0241   -6.4875   44.6556 C   0  0  0  0  0  0  0  0  0  0  0  0
    7.3633   -7.3079   43.7611 O   0  0  0  0  0  0  0  0  0  0  0  0
    5.7930   -5.7677   44.5219 N   0  0  0  0  0  0  0  0  0  0  0  0
    5.2509   -4.9058   45.5387 C   0  0  0  0  0  0  0  0  0  0  0  0
    3.8697   -4.9618   45.7860 C   0  0  0  0  0  0  0  0  0  0  0  0
    7.7942   -2.8633   45.9091 H   0  0  0  0  0  0  0  0  0  0  0  0
    5.2871   -5.8688   43.6835 H   0  0  0  0  0  0  0  0  0  0  0  0
    0.3603   -2.3108   43.1864 N   0  0  0  0  0  0  0  0  0  0  0  0
    0.4836   -1.4249   44.3457 C   0  0  0  0  0  0  0  0  0  0  0  0
    1.2620   -2.1406   45.4523 C   0  0  0  0  0  0  0  0  0  0  0  0
    0.6548   -3.4545   45.7373 N   0  0  0  0  0  0  0  0  0  0  0  0
    0.6891   -4.3143   44.5384 C   0  0  0  0  0  0  0  0  0  0  0  0
   -0.1170   -3.6766   43.4054 C   0  0  0  0  0  0  0  0  0  0  0  0
    3.7887   -2.1771   39.6075 C   0  0  0  0  0  0  0  0  0  0  0  0
    2.4227   -1.8062   40.1063 C   0  0  0  0  0  0  0  0  0  0  0  0
    1.5351   -1.0828   39.2980 C   0  0  0  0  0  0  0  0  0  0  0  0
    0.2657   -0.7437   39.7739 C   0  0  0  0  0  0  0  0  0  0  0  0
   -0.1360   -1.1171   41.0673 C   0  0  0  0  0  0  0  0  0  0  0  0
   -1.5074   -0.7382   41.5544 C   0  0  0  0  0  0  0  0  0  0  0  0
    0.7471   -1.8659   41.8764 C   0  0  0  0  0  0  0  0  0  0  0  0
    2.0231   -2.1924   41.3939 C   0  0  0  0  0  0  0  0  0  0  0  0
 25 26  1  0  0  0
 26 27  2  0  0  0
 27 28  1  0  0  0
 28 29  2  0  0  0
 29 30  1  0  0  0
 29 31  1  0  0  0
 31 32  2  0  0  0
 31 19  1  0  0  0
 19 20  1  0  0  0
 20 21  1  0  0  0
 21 22  1  0  0  0
 22 23  1  0  0  0
 23 24  1  0  0  0
 22  1  1  0  0  0
  1  2  2  0  0  0
  1  3  2  0  0  0
  1  4  1  0  0  0
  4  5  2  0  0  0
  5  6  1  0  0  0
  6  7  2  0  0  0
  7  8  1  0  0  0
  8  9  1  0  0  0
  9 10  2  0  0  0
  9 11  1  0  0  0
 11 12  1  0  0  0
 12 13  2  0  0  0
 12 14  1  0  0  0
 14 15  1  0  0  0
 15 16  2  0  0  0
 32 26  1  0  0  0
 24 19  1  0  0  0
 16  4  1  0  0  0
 15  7  1  0  0  0
  8 17  1  0  0  0
 14 18  1  0  0  0
M  END
> <minimizedAffinity>
-6.97061

> <newdefault_CNNaffinity>
5.38183

> <newdefault_CNNscore>
0.213468

> <CNNaffinity_times_score>
1.1488485

> <protein>
3rik

$$$$
49735383


 35 37  0  0  0  0  0  0  0  0999 V2000
  -33.4928  -12.6427    6.6666 S   0  0  0  0  0  0  0  0  0  0  0  0
  -34.1079  -11.2744    6.5558 O   0  0  0  0  0  0  0  0  0  0  0  0
  -32.0425  -12.4572    7.0043 O   0  0  0  0  0  0  0  0  0  0  0  0
  -33.7817  -14.8091    2.7615 C   0  0  0  0  0  0  0  0  0  0  0  0
  -33.2379  -15.6331    3.9563 C   0  0  0  0  0  0  0  0  0  0  0  0
  -33.4563  -14.9354    5.3114 C   0  0  0  0  0  0  0  0  0  0  0  0
  -33.5710  -13.4808    5.1299 N   0  0  0  0  0  0  0  0  0  0  0  0
  -34.7978  -13.1222    4.3909 C   0  0  0  0  0  0  0  0  0  0  0  0
  -35.0582  -14.0565    3.1892 C   0  0  0  0  0  0  0  0  0  0  0  0
  -35.1280  -16.6051    1.4854 N   0  0  0  0  0  0  0  0  0  0  0  0
  -34.0400  -15.6654    1.5344 C   0  0  0  0  0  0  0  0  0  0  0  0
  -33.2430  -15.6035    0.5581 O   0  0  0  0  0  0  0  0  0  0  0  0
  -36.4328  -17.5852    3.3357 C   0  0  0  0  0  0  0  0  0  0  0  0
  -35.1915  -17.7047    2.4573 C   0  0  0  0  0  0  0  0  0  0  0  0
  -36.2410  -16.3680    0.5556 C   0  0  0  0  0  0  0  0  0  0  0  0
  -36.2092  -17.3731   -0.6128 C   0  0  0  0  0  0  0  0  0  0  0  0
  -36.0294  -16.7058   -1.9266 N   0  0  0  0  0  0  0  0  0  0  0  0
  -37.2516  -16.8490   -2.7384 C   0  0  0  0  0  0  0  0  0  0  0  0
  -35.7142  -15.2729   -1.7671 C   0  0  0  0  0  0  0  0  0  0  0  0
  -35.2453  -17.1573   -2.3975 H   0  0  0  0  0  0  0  0  0  0  0  0
  -34.3132  -13.5343    7.9675 C   0  0  0  0  0  0  0  0  0  0  0  0
  -35.6812  -13.6459    8.1736 C   0  0  0  0  0  0  0  0  0  0  0  0
  -36.7734  -12.9588    7.4200 C   0  0  0  0  0  0  0  0  0  0  0  0
  -35.9185  -14.5978    9.0968 N   0  0  0  0  0  0  0  0  0  0  0  0
  -34.7636  -15.0619    9.4770 O   0  0  0  0  0  0  0  0  0  0  0  0
  -33.7777  -14.4670    8.8487 C   0  0  0  0  0  0  0  0  0  0  0  0
  -32.3693  -14.8121    9.0813 C   0  0  0  0  0  0  0  0  0  0  0  0
  -31.7716  -15.7984    8.4042 C   0  0  0  0  0  0  0  0  0  0  0  0
  -30.3356  -16.1342    8.5495 C   0  0  0  0  0  0  0  0  0  0  0  0
  -29.6880  -15.7908    9.7496 C   0  0  0  0  0  0  0  0  0  0  0  0
  -28.3316  -16.0743    9.9315 C   0  0  0  0  0  0  0  0  0  0  0  0
  -27.6040  -16.6956    8.9157 C   0  0  0  0  0  0  0  0  0  0  0  0
  -28.2291  -17.0264    7.7125 C   0  0  0  0  0  0  0  0  0  0  0  0
  -29.5853  -16.7398    7.5173 C   0  0  0  0  0  0  0  0  0  0  0  0
  -30.1352  -17.0025    6.3043 F   0  0  0  0  0  0  0  0  0  0  0  0
 13 14  1  0  0  0
 14 10  1  0  0  0
 10 15  1  0  0  0
 15 16  1  0  0  0
 16 17  1  0  0  0
 17 18  1  0  0  0
 17 19  1  0  0  0
 10 11  1  0  0  0
 11 12  2  0  0  0
 11  4  1  0  0  0
  4  5  1  0  0  0
  5  6  1  0  0  0
  6  7  1  0  0  0
  7  8  1  0  0  0
  8  9  1  0  0  0
  7  1  1  0  0  0
  1  2  2  0  0  0
  1  3  2  0  0  0
  1 21  1  0  0  0
 21 22  1  0  0  0
 22 23  1  0  0  0
 22 24  2  0  0  0
 24 25  1  0  0  0
 25 26  1  0  0  0
 26 27  1  0  0  0
 27 28  2  0  0  0
 28 29  1  0  0  0
 29 30  2  0  0  0
 30 31  1  0  0  0
 31 32  2  0  0  0
 32 33  1  0  0  0
 33 34  2  0  0  0
 34 35  1  0  0  0
  9  4  1  0  0  0
 26 21  2  0  0  0
 34 29  1  0  0  0
 17 20  1  0  0  0
M  CHG 1  17   1
M  END
> <minimizedAffinity>
-7.13027

> <newdefault_CNNaffinity>
6.84128

> <newdefault_CNNscore>
0.463651

> <CNNaffinity_times_score>
3.1719663

> <protein>
2xwd

$$$$
49736099


 37 41  0  0  0  0  0  0  0  0999 V2000
  -26.6325  -17.5730    5.6453 N   0  0  0  0  0  0  0  0  0  0  0  0
  -26.1692  -17.4605    6.9323 C   0  0  0  0  0  0  0  0  0  0  0  0
  -24.9686  -17.7467    7.1995 O   0  0  0  0  0  0  0  0  0  0  0  0
  -27.0312  -17.0272    7.9689 C   0  0  0  0  0  0  0  0  0  0  0  0
  -26.5724  -16.9095    9.2944 C   0  0  0  0  0  0  0  0  0  0  0  0
  -27.4338  -16.4841   10.3050 C   0  0  0  0  0  0  0  0  0  0  0  0
  -28.7587  -16.1713   10.0084 C   0  0  0  0  0  0  0  0  0  0  0  0
  -29.2334  -16.2752    8.6984 C   0  0  0  0  0  0  0  0  0  0  0  0
  -28.3788  -16.6958    7.6554 C   0  0  0  0  0  0  0  0  0  0  0  0
  -28.7706  -16.8076    6.3458 N   0  0  0  0  0  0  0  0  0  0  0  0
  -29.9146  -16.5630    5.6470 C   0  0  0  0  0  0  0  0  0  0  0  0
  -29.7367  -16.8294    4.3329 N   0  0  0  0  0  0  0  0  0  0  0  0
  -28.4944  -17.2514    4.1669 N   0  0  0  0  0  0  0  0  0  0  0  0
  -27.9275  -17.2326    5.3857 C   0  0  0  0  0  0  0  0  0  0  0  0
  -25.7475  -18.0018    4.5458 C   0  0  0  0  0  0  0  0  0  0  0  0
  -25.9515  -19.4958    4.2528 C   0  0  0  0  0  0  0  0  0  0  0  0
  -24.8762  -20.3630    4.9234 C   0  0  0  0  0  0  0  0  0  0  0  0
  -24.5614  -21.4928    4.1293 O   0  0  0  0  0  0  0  0  0  0  0  0
  -22.5147  -20.4036    3.4882 C   0  0  0  0  0  0  0  0  0  0  0  0
  -23.1588  -21.6839    4.0236 C   0  0  0  0  0  0  0  0  0  0  0  0
  -22.9022  -22.8521    3.0719 C   0  0  0  0  0  0  0  0  0  0  0  0
  -31.2135  -16.0153    6.1918 C   0  0  0  0  0  0  0  0  0  0  0  0
  -32.2022  -15.5624    5.1008 C   0  0  0  0  0  0  0  0  0  0  0  0
  -33.3400  -16.5420    4.9222 C   0  0  0  0  0  0  0  0  0  0  0  0
  -33.4617  -17.4887    5.7494 O   0  0  0  0  0  0  0  0  0  0  0  0
  -34.2538  -16.4569    3.8083 N   0  0  0  0  0  0  0  0  0  0  0  0
  -34.6229  -17.7050    3.1167 C   0  0  0  0  0  0  0  0  0  0  0  0
  -36.0245  -17.6117    2.5091 C   0  0  0  0  0  0  0  0  0  0  0  0
  -36.1537  -16.3489    1.7785 N   0  0  0  0  0  0  0  0  0  0  0  0
  -35.8992  -15.1242    2.5377 C   0  0  0  0  0  0  0  0  0  0  0  0
  -34.4908  -15.1727    3.1285 C   0  0  0  0  0  0  0  0  0  0  0  0
  -36.2558  -16.3227    0.3419 C   0  0  0  0  0  0  0  0  0  0  0  0
  -35.5425  -15.3779   -0.4144 C   0  0  0  0  0  0  0  0  0  0  0  0
  -35.6649  -15.3785   -1.8055 C   0  0  0  0  0  0  0  0  0  0  0  0
  -36.4921  -16.3129   -2.4311 C   0  0  0  0  0  0  0  0  0  0  0  0
  -37.1890  -17.2377   -1.6516 C   0  0  0  0  0  0  0  0  0  0  0  0
  -37.0463  -17.2305   -0.2987 N   0  0  0  0  0  0  0  0  0  0  0  0
 19 20  1  0  0  0
 20 21  1  0  0  0
 20 18  1  0  0  0
 18 17  1  0  0  0
 17 16  1  0  0  0
 16 15  1  0  0  0
 15  1  1  0  0  0
  1  2  1  0  0  0
  2  3  2  0  0  0
  2  4  1  0  0  0
  4  5  2  0  0  0
  5  6  1  0  0  0
  6  7  2  0  0  0
  7  8  1  0  0  0
  8  9  2  0  0  0
  9 10  1  0  0  0
 10 11  1  0  0  0
 11 22  1  0  0  0
 22 23  1  0  0  0
 23 24  1  0  0  0
 24 25  2  0  0  0
 24 26  1  0  0  0
 26 27  1  0  0  0
 27 28  1  0  0  0
 28 29  1  0  0  0
 29 30  1  0  0  0
 30 31  1  0  0  0
 29 32  1  0  0  0
 32 33  2  0  0  0
 33 34  1  0  0  0
 34 35  2  0  0  0
 35 36  1  0  0  0
 36 37  2  0  0  0
 11 12  2  0  0  0
 12 13  1  0  0  0
 13 14  2  0  0  0
 14  1  1  0  0  0
  9  4  1  0  0  0
 14 10  1  0  0  0
 31 26  1  0  0  0
 37 32  1  0  0  0
M  END
> <minimizedAffinity>
-9.87343

> <newdefault_CNNaffinity>
6.84219

> <newdefault_CNNscore>
0.556419

> <CNNaffinity_times_score>
3.8071246

> <protein>
2xwd

$$$$
49737246


 28 30  0  0  0  0  0  0  0  0999 V2000
   35.3483   29.8601   -5.1194 C   0  0  0  0  0  0  0  0  0  0  0  0
   34.1794   30.0662   -5.5437 O   0  0  0  0  0  0  0  0  0  0  0  0
   35.6794   30.1639   -3.7567 N   0  0  0  0  0  0  0  0  0  0  0  0
   36.5107   29.7974   -3.3773 H   0  0  0  0  0  0  0  0  0  0  0  0
   39.5594   27.7233   -8.8275 C   0  0  0  0  0  0  0  0  0  0  0  0
   38.7847   26.5495   -8.6369 C   0  0  0  0  0  0  0  0  0  0  0  0
   37.6420   26.5692   -7.8177 C   0  0  0  0  0  0  0  0  0  0  0  0
   37.3028   27.7691   -7.2001 C   0  0  0  0  0  0  0  0  0  0  0  0
   36.2880   27.9960   -6.4021 O   0  0  0  0  0  0  0  0  0  0  0  0
   36.3394   29.2635   -6.0308 C   0  0  0  0  0  0  0  0  0  0  0  0
   37.4309   29.8971   -6.6376 C   0  0  0  0  0  0  0  0  0  0  0  0
   37.8486   31.3334   -6.5420 C   0  0  0  0  0  0  0  0  0  0  0  0
   38.0463   28.9056   -7.3744 C   0  0  0  0  0  0  0  0  0  0  0  0
   39.1845   28.9228   -8.1811 C   0  0  0  0  0  0  0  0  0  0  0  0
   40.7842   27.6904   -9.7073 C   0  0  0  0  0  0  0  0  0  0  0  0
   42.1679   25.9519  -10.9452 C   0  0  0  0  0  0  0  0  0  0  0  0
   41.5285   26.3505   -9.6155 C   0  0  0  0  0  0  0  0  0  0  0  0
   34.8273   30.9977   -2.9115 C   0  0  0  0  0  0  0  0  0  0  0  0
   34.9851   30.5945   -1.4341 C   0  0  0  0  0  0  0  0  0  0  0  0
   35.6853   31.6282   -0.6304 N   0  0  0  0  0  0  0  0  0  0  0  0
   34.9696   31.9005    0.6483 C   0  0  0  0  0  0  0  0  0  0  0  0
   35.8910   32.5171    1.7064 C   0  0  0  0  0  0  0  0  0  0  0  0
   37.0278   31.5511    2.0791 C   0  0  0  0  0  0  0  0  0  0  0  0
   37.4212   30.6114    0.9207 C   0  0  0  0  0  0  0  0  0  0  0  0
   36.7258   29.3965    1.0389 O   0  0  0  0  0  0  0  0  0  0  0  0
   37.1244   31.2689   -0.4436 C   0  0  0  0  0  0  0  0  0  0  0  0
   35.6725   32.5082   -1.1461 H   0  0  0  0  0  0  0  0  0  0  0  0
   35.7717   29.5640    0.9898 H   0  0  0  0  0  0  0  0  0  0  0  0
 16 17  1  0  0  0
 17 15  1  0  0  0
 15  5  1  0  0  0
  5  6  2  0  0  0
  6  7  1  0  0  0
  7  8  2  0  0  0
  8  9  1  0  0  0
  9 10  1  0  0  0
 10  1  1  0  0  0
  1  2  2  0  0  0
  1  3  1  0  0  0
  3 18  1  0  0  0
 18 19  1  0  0  0
 20 19  1  0  0  0
 20 21  1  0  0  0
 21 22  1  0  0  0
 22 23  1  0  0  0
 23 24  1  0  0  0
 24 25  1  0  0  0
 24 26  1  0  0  0
 10 11  2  0  0  0
 11 12  1  0  0  0
 11 13  1  0  0  0
 13 14  2  0  0  0
 14  5  1  0  0  0
 13  8  1  0  0  0
 26 20  1  0  0  0
  3  4  1  0  0  0
 20 27  1  0  0  0
 25 28  1  0  0  0
M  CHG 1  20   1
M  END
> <minimizedAffinity>
-7.64178

> <newdefault_CNNaffinity>
6.639

> <newdefault_CNNscore>
0.952156

> <CNNaffinity_times_score>
6.3213634

> <protein>
2v3e

$$$$
49816084


 29 31  0  0  0  0  0  0  0  0999 V2000
   -3.9462   -8.3684   43.1871 C   0  0  0  0  0  0  0  0  0  0  0  0
   -4.0588   -8.2082   41.8591 C   0  0  0  0  0  0  0  0  0  0  0  0
   -3.1022   -7.0398   40.8809 S   0  0  0  0  0  0  0  0  0  0  0  0
   -4.0244   -7.5707   39.4326 C   0  0  0  0  0  0  0  0  0  0  0  0
   -4.2299   -6.5249   38.1887 S   0  0  0  0  0  0  0  0  0  0  0  0
   -4.8866   -8.7000   39.6400 N   0  0  0  0  0  0  0  0  0  0  0  0
   -4.9102   -9.0463   41.0207 C   0  0  0  0  0  0  0  0  0  0  0  0
   -5.6197   -9.9856   41.4735 O   0  0  0  0  0  0  0  0  0  0  0  0
   -2.7303   -5.5962   45.4852 C   0  0  0  0  0  0  0  0  0  0  0  0
   -1.4223   -6.0435   45.7523 C   0  0  0  0  0  0  0  0  0  0  0  0
   -0.9598   -7.2365   45.1915 C   0  0  0  0  0  0  0  0  0  0  0  0
   -1.7876   -7.9863   44.3528 C   0  0  0  0  0  0  0  0  0  0  0  0
   -3.0813   -7.5384   44.0509 C   0  0  0  0  0  0  0  0  0  0  0  0
   -3.5536   -6.3532   44.6422 C   0  0  0  0  0  0  0  0  0  0  0  0
   -3.0866   -4.0256   47.3976 C   0  0  0  0  0  0  0  0  0  0  0  0
   -3.2489   -4.4157   46.0379 O   0  0  0  0  0  0  0  0  0  0  0  0
   -5.6699   -9.4047   38.6096 C   0  0  0  0  0  0  0  0  0  0  0  0
   -4.7521   -9.9306   37.4975 C   0  0  0  0  0  0  0  0  0  0  0  0
   -6.8201   -8.5399   38.1399 C   0  0  0  0  0  0  0  0  0  0  0  0
   -6.9768   -8.3884   36.8974 O   0  0  0  0  0  0  0  0  0  0  0  0
   -7.7309   -7.8977   39.0515 N   0  0  0  0  0  0  0  0  0  0  0  0
   -7.6168   -8.0341   40.0198 H   0  0  0  0  0  0  0  0  0  0  0  0
   -8.8246   -7.0452   38.5732 C   0  0  0  0  0  0  0  0  0  0  0  0
  -10.1995   -7.6812   38.8910 C   0  0  0  0  0  0  0  0  0  0  0  0
  -11.0265   -6.5622   39.9887 S   0  0  0  0  0  0  0  0  0  0  0  0
  -11.2173   -7.1566   41.3554 O   0  0  0  0  0  0  0  0  0  0  0  0
  -12.3235   -6.0673   39.4134 O   0  0  0  0  0  0  0  0  0  0  0  0
   -9.8037   -5.3433   39.9777 C   0  0  0  0  0  0  0  0  0  0  0  0
   -8.7592   -5.6895   39.2384 C   0  0  0  0  0  0  0  0  0  0  0  0
 15 16  1  0  0  0
 16  9  1  0  0  0
  9 10  2  0  0  0
 10 11  1  0  0  0
 11 12  2  0  0  0
 12 13  1  0  0  0
 13  1  1  0  0  0
  1  2  2  0  0  0
  2  3  1  0  0  0
  3  4  1  0  0  0
  4  5  2  0  0  0
  4  6  1  0  0  0
  6 17  1  0  0  0
 17 18  1  0  0  0
 17 19  1  0  0  0
 19 20  2  0  0  0
 19 21  1  0  0  0
 23 21  1  0  0  0
 23 24  1  0  0  0
 24 25  1  0  0  0
 25 26  2  0  0  0
 25 27  2  0  0  0
 25 28  1  0  0  0
 28 29  2  0  0  0
  6  7  1  0  0  0
  7  8  2  0  0  0
 13 14  2  0  0  0
 14  9  1  0  0  0
  2  7  1  0  0  0
 29 23  1  0  0  0
 21 22  1  0  0  0
M  END
> <minimizedAffinity>
-6.59662

> <newdefault_CNNaffinity>
5.64964

> <newdefault_CNNscore>
0.263488

> <CNNaffinity_times_score>
1.4886123

> <protein>
3ril

$$$$
49823879


 22 23  0  0  0  0  0  0  0  0999 V2000
   36.3532   32.4573   -2.8964 N   0  0  0  0  0  0  0  0  0  0  0  0
   34.9974   32.6549   -2.4635 C   0  0  0  0  0  0  0  0  0  0  0  0
   34.1640   33.2098   -3.2293 O   0  0  0  0  0  0  0  0  0  0  0  0
   34.5489   32.1403   -1.2016 N   0  0  0  0  0  0  0  0  0  0  0  0
   36.8844   31.7597   -2.4488 H   0  0  0  0  0  0  0  0  0  0  0  0
   33.5883   31.9532   -1.0949 H   0  0  0  0  0  0  0  0  0  0  0  0
   38.2666   34.6386   -6.0109 C   0  0  0  0  0  0  0  0  0  0  0  0
   38.1301   35.2097   -4.7360 C   0  0  0  0  0  0  0  0  0  0  0  0
   37.5006   34.5021   -3.7079 C   0  0  0  0  0  0  0  0  0  0  0  0
   36.9812   33.2167   -3.9437 C   0  0  0  0  0  0  0  0  0  0  0  0
   37.1323   32.6424   -5.2142 C   0  0  0  0  0  0  0  0  0  0  0  0
   37.7612   33.3498   -6.2424 C   0  0  0  0  0  0  0  0  0  0  0  0
   38.9487   35.3998   -7.1209 C   0  0  0  0  0  0  0  0  0  0  0  0
   40.1474   34.6337   -7.7001 C   0  0  0  0  0  0  0  0  0  0  0  0
   42.3994   35.0222   -8.7738 C   0  0  0  0  0  0  0  0  0  0  0  0
   40.9463   35.4817   -8.7003 C   0  0  0  0  0  0  0  0  0  0  0  0
   35.4138   31.8806   -0.0835 C   0  0  0  0  0  0  0  0  0  0  0  0
   36.1153   30.6697   -0.0146 C   0  0  0  0  0  0  0  0  0  0  0  0
   36.9386   30.3977    1.0794 C   0  0  0  0  0  0  0  0  0  0  0  0
   37.0407   31.3358    2.1079 C   0  0  0  0  0  0  0  0  0  0  0  0
   36.3355   32.4960    2.0431 N   0  0  0  0  0  0  0  0  0  0  0  0
   35.5298   32.7856    0.9864 C   0  0  0  0  0  0  0  0  0  0  0  0
 15 16  1  0  0  0
 16 14  1  0  0  0
 14 13  1  0  0  0
 13  7  1  0  0  0
  7  8  2  0  0  0
  8  9  1  0  0  0
  9 10  2  0  0  0
 10  1  1  0  0  0
  1  2  1  0  0  0
  2  3  2  0  0  0
  2  4  1  0  0  0
  4 17  1  0  0  0
 17 18  2  0  0  0
 18 19  1  0  0  0
 19 20  2  0  0  0
 20 21  1  0  0  0
 21 22  2  0  0  0
 10 11  1  0  0  0
 11 12  2  0  0  0
 12  7  1  0  0  0
 22 17  1  0  0  0
  1  5  1  0  0  0
  4  6  1  0  0  0
M  END
> <minimizedAffinity>
-6.39979

> <newdefault_CNNaffinity>
5.86001

> <newdefault_CNNscore>
0.718178

> <CNNaffinity_times_score>
4.2085304

> <protein>
2v3e

$$$$
49829209


 32 34  0  0  0  0  0  0  0  0999 V2000
    4.5327   -3.5600   43.9587 C   0  0  0  0  0  0  0  0  0  0  0  0
    3.9749   -3.5099   45.2448 C   0  0  0  0  0  0  0  0  0  0  0  0
    2.7097   -2.9515   45.4257 C   0  0  0  0  0  0  0  0  0  0  0  0
    2.2092   -2.8870   46.5780 O   0  0  0  0  0  0  0  0  0  0  0  0
    2.0277   -2.4829   44.3884 O   0  0  0  0  0  0  0  0  0  0  0  0
    2.5006   -2.5056   43.1462 C   0  0  0  0  0  0  0  0  0  0  0  0
    1.7080   -2.0146   42.1048 C   0  0  0  0  0  0  0  0  0  0  0  0
    2.1788   -2.0265   40.7795 C   0  0  0  0  0  0  0  0  0  0  0  0
    3.4702   -2.5061   40.5170 C   0  0  0  0  0  0  0  0  0  0  0  0
    4.0997   -2.5068   38.8752 Cl  0  0  0  0  0  0  0  0  0  0  0  0
    4.2644   -3.0097   41.5513 C   0  0  0  0  0  0  0  0  0  0  0  0
    3.7871   -3.0286   42.8768 C   0  0  0  0  0  0  0  0  0  0  0  0
    5.8891   -4.2111   43.7838 C   0  0  0  0  0  0  0  0  0  0  0  0
    6.8716   -3.7383   44.8619 C   0  0  0  0  0  0  0  0  0  0  0  0
    7.2686   -5.8920   46.1234 C   0  0  0  0  0  0  0  0  0  0  0  0
    7.8821   -4.8401   45.2022 C   0  0  0  0  0  0  0  0  0  0  0  0
    1.3989   -1.5714   39.7005 O   0  0  0  0  0  0  0  0  0  0  0  0
    0.2058   -0.7936   39.7996 C   0  0  0  0  0  0  0  0  0  0  0  0
   -1.0159   -1.7113   39.7885 C   0  0  0  0  0  0  0  0  0  0  0  0
    0.1307    0.1593   38.6280 C   0  0  0  0  0  0  0  0  0  0  0  0
   -0.2464   -0.2724   37.5037 O   0  0  0  0  0  0  0  0  0  0  0  0
    0.4006    1.5614   38.7713 N   0  0  0  0  0  0  0  0  0  0  0  0
   -0.1163    2.1909   38.2183 H   0  0  0  0  0  0  0  0  0  0  0  0
    1.3974    2.1115   39.6894 C   0  0  0  0  0  0  0  0  0  0  0  0
    1.3188    3.6497   39.7075 C   0  0  0  0  0  0  0  0  0  0  0  0
    2.0145    4.2675   38.5438 N   0  0  0  0  0  0  0  0  0  0  0  0
    1.1353    5.2036   37.8080 C   0  0  0  0  0  0  0  0  0  0  0  0
    0.9712    6.5282   38.5636 C   0  0  0  0  0  0  0  0  0  0  0  0
    2.2295    7.1378   38.7537 O   0  0  0  0  0  0  0  0  0  0  0  0
    3.0329    6.3179   39.5773 C   0  0  0  0  0  0  0  0  0  0  0  0
    3.2778    4.9421   38.9283 C   0  0  0  0  0  0  0  0  0  0  0  0
    2.2542    3.4961   37.9210 H   0  0  0  0  0  0  0  0  0  0  0  0
 15 16  1  0  0  0
 16 14  1  0  0  0
 14 13  1  0  0  0
 13  1  1  0  0  0
  1  2  2  0  0  0
  2  3  1  0  0  0
  3  4  2  0  0  0
  3  5  1  0  0  0
  5  6  1  0  0  0
  6  7  2  0  0  0
  7  8  1  0  0  0
  8 17  1  0  0  0
 17 18  1  0  0  0
 18 19  1  0  0  0
 18 20  1  0  0  0
 20 21  2  0  0  0
 20 22  1  0  0  0
 22 24  1  0  0  0
 24 25  1  0  0  0
 25 26  1  0  0  0
 26 27  1  0  0  0
 27 28  1  0  0  0
 28 29  1  0  0  0
 29 30  1  0  0  0
 30 31  1  0  0  0
  8  9  2  0  0  0
  9 10  1  0  0  0
  9 11  1  0  0  0
 11 12  2  0  0  0
 12  1  1  0  0  0
 12  6  1  0  0  0
 31 26  1  0  0  0
 22 23  1  0  0  0
 26 32  1  0  0  0
M  CHG 1  26   1
M  END
> <minimizedAffinity>
-5.59709

> <newdefault_CNNaffinity>
5.37368

> <newdefault_CNNscore>
0.272491

> <CNNaffinity_times_score>
1.4642795

> <protein>
3rik

$$$$
56314648


 40 45  0  0  0  0  0  0  0  0999 V2000
   -0.7663   -0.6927   41.5582 C   0  0  0  0  0  0  0  0  0  0  0  0
   -0.4109   -1.7136   40.4292 C   0  0  0  0  0  0  0  0  0  0  0  0
   -1.7888   -2.1760   39.7890 C   0  0  0  0  0  0  0  0  0  0  0  0
   -2.1413   -1.6511   38.3651 C   0  0  0  0  0  0  0  0  0  0  0  0
   -1.5577   -0.2825   37.9447 C   0  0  0  0  0  0  0  0  0  0  0  0
   -2.4271    0.8101   38.2150 O   0  0  0  0  0  0  0  0  0  0  0  0
   -1.6983    1.7867   38.8671 C   0  0  0  0  0  0  0  0  0  0  0  0
   -2.1656    2.9039   39.2086 O   0  0  0  0  0  0  0  0  0  0  0  0
   -0.3693    1.3083   39.1675 C   0  0  0  0  0  0  0  0  0  0  0  0
   -0.3018    0.0655   38.6896 C   0  0  0  0  0  0  0  0  0  0  0  0
    0.4711   -1.0489   39.3251 C   0  0  0  0  0  0  0  0  0  0  0  0
    1.8829   -0.6682   39.8020 C   0  0  0  0  0  0  0  0  0  0  0  0
    2.6411   -1.9304   40.2181 C   0  0  0  0  0  0  0  0  0  0  0  0
    1.9085   -2.7502   41.3134 C   0  0  0  0  0  0  0  0  0  0  0  0
    2.0639   -2.1295   42.7027 C   0  0  0  0  0  0  0  0  0  0  0  0
    1.7487   -3.3039   43.6045 C   0  0  0  0  0  0  0  0  0  0  0  0
    0.2183   -3.5639   43.5394 C   0  0  0  0  0  0  0  0  0  0  0  0
   -0.3494   -3.7637   42.1102 C   0  0  0  0  0  0  0  0  0  0  0  0
    0.3826   -2.9733   40.9762 C   0  0  0  0  0  0  0  0  0  0  0  0
    2.6468   -4.4346   43.0162 C   0  0  0  0  0  0  0  0  0  0  0  0
    2.6028   -4.1362   41.4913 C   0  0  0  0  0  0  0  0  0  0  0  0
    2.1803   -5.9003   43.2892 C   0  0  0  0  0  0  0  0  0  0  0  0
    2.1356   -6.1877   44.6604 O   0  0  0  0  0  0  0  0  0  0  0  0
    3.0231   -6.0917   45.0400 H   0  0  0  0  0  0  0  0  0  0  0  0
    4.0115   -4.2436   43.3993 O   0  0  0  0  0  0  0  0  0  0  0  0
    4.2547   -4.1268   44.7956 C   0  0  0  0  0  0  0  0  0  0  0  0
    4.9951   -5.2571   45.2435 O   0  0  0  0  0  0  0  0  0  0  0  0
    6.3700   -5.1311   44.9262 C   0  0  0  0  0  0  0  0  0  0  0  0
    7.0343   -4.0476   45.8184 C   0  0  0  0  0  0  0  0  0  0  0  0
    8.1114   -3.4789   45.1167 O   0  0  0  0  0  0  0  0  0  0  0  0
    6.0126   -2.9520   46.2130 C   0  0  0  0  0  0  0  0  0  0  0  0
    5.3799   -3.3241   47.4126 O   0  0  0  0  0  0  0  0  0  0  0  0
    4.9575   -2.7694   45.1026 C   0  0  0  0  0  0  0  0  0  0  0  0
    5.5727   -2.2626   43.9431 O   0  0  0  0  0  0  0  0  0  0  0  0
    7.7849   -3.0676   44.3011 H   0  0  0  0  0  0  0  0  0  0  0  0
    4.9147   -4.1657   47.2853 H   0  0  0  0  0  0  0  0  0  0  0  0
    6.2468   -2.8882   43.6349 H   0  0  0  0  0  0  0  0  0  0  0  0
    7.0546   -6.4969   45.0820 C   0  0  0  0  0  0  0  0  0  0  0  0
    8.3977   -6.3535   45.4629 O   0  0  0  0  0  0  0  0  0  0  0  0
    8.8761   -5.8573   44.7804 H   0  0  0  0  0  0  0  0  0  0  0  0
  2  1  1  0  0  0
  2  3  1  0  0  0
  3  4  1  0  0  0
  5  4  1  0  0  0
  5  6  1  0  0  0
  6  7  1  0  0  0
  7  8  2  0  0  0
  7  9  1  0  0  0
  9 10  2  0  0  0
 10 11  1  0  0  0
 11 12  1  0  0  0
 12 13  1  0  0  0
 14 13  1  0  0  0
 14 15  1  0  0  0
 15 16  1  0  0  0
 16 17  1  0  0  0
 17 18  1  0  0  0
 19 18  1  0  0  0
 16 20  1  0  0  0
 20 22  1  0  0  0
 22 23  1  0  0  0
 20 21  1  0  0  0
 20 25  1  0  0  0
 26 25  1  0  0  0
 26 27  1  0  0  0
 27 28  1  0  0  0
 28 38  1  0  0  0
 38 39  1  0  0  0
 28 29  1  0  0  0
 29 30  1  0  0  0
 29 31  1  0  0  0
 31 32  1  0  0  0
 31 33  1  0  0  0
 33 34  1  0  0  0
 11  2  1  0  0  0
 19  2  1  0  0  0
 10  5  1  0  0  0
 19 14  1  0  0  0
 21 14  1  0  0  0
 33 26  1  0  0  0
 23 24  1  0  0  0
 39 40  1  0  0  0
 30 35  1  0  0  0
 32 36  1  0  0  0
 34 37  1  0  0  0
M  END
> <minimizedAffinity>
-7.61410

> <newdefault_CNNaffinity>
5.0035

> <newdefault_CNNscore>
0.41222

> <CNNaffinity_times_score>
2.0625427

> <protein>
3rik

$$$$
56324751


 39 42  0  0  0  0  0  0  0  0999 V2000
  -36.4309  -18.0088    3.6163 N   0  0  0  0  0  0  0  0  0  0  0  0
  -36.4144  -18.8670    4.7687 C   0  0  0  0  0  0  0  0  0  0  0  0
  -35.3349  -19.3848    5.1715 O   0  0  0  0  0  0  0  0  0  0  0  0
  -37.2680  -17.5418    3.3916 H   0  0  0  0  0  0  0  0  0  0  0  0
  -37.6558  -19.1510    5.5010 C   0  0  0  0  0  0  0  0  0  0  0  0
  -38.3826  -20.3165    5.2216 C   0  0  0  0  0  0  0  0  0  0  0  0
  -39.5440  -20.6105    5.9414 C   0  0  0  0  0  0  0  0  0  0  0  0
  -39.9661  -19.7704    6.9805 C   0  0  0  0  0  0  0  0  0  0  0  0
  -39.2369  -18.6006    7.2615 C   0  0  0  0  0  0  0  0  0  0  0  0
  -38.0976  -18.2846    6.5139 C   0  0  0  0  0  0  0  0  0  0  0  0
  -41.1323  -20.1349    7.7298 N   0  0  0  0  0  0  0  0  0  0  0  0
  -41.1209  -20.8536    9.3084 S   0  0  0  0  0  0  0  0  0  0  0  0
  -41.3317  -19.7964   10.3546 O   0  0  0  0  0  0  0  0  0  0  0  0
  -42.2152  -21.8807    9.4224 O   0  0  0  0  0  0  0  0  0  0  0  0
  -39.5528  -21.6106    9.5783 C   0  0  0  0  0  0  0  0  0  0  0  0
  -38.6687  -21.1002   10.5380 C   0  0  0  0  0  0  0  0  0  0  0  0
  -37.4254  -21.7038   10.7395 C   0  0  0  0  0  0  0  0  0  0  0  0
  -37.0553  -22.8225    9.9892 C   0  0  0  0  0  0  0  0  0  0  0  0
  -35.8405  -23.3909   10.1969 F   0  0  0  0  0  0  0  0  0  0  0  0
  -37.9390  -23.3535    9.0348 C   0  0  0  0  0  0  0  0  0  0  0  0
  -37.5360  -24.5448    8.2168 C   0  0  0  0  0  0  0  0  0  0  0  0
  -39.1856  -22.7369    8.8289 C   0  0  0  0  0  0  0  0  0  0  0  0
  -35.2627  -17.7959    2.7608 C   0  0  0  0  0  0  0  0  0  0  0  0
  -34.8712  -16.2954    2.6530 C   0  0  0  0  0  0  0  0  0  0  0  0
  -34.8705  -15.7764    1.2451 N   0  0  0  0  0  0  0  0  0  0  0  0
  -35.3222  -16.8186    0.2868 C   0  0  0  0  0  0  0  0  0  0  0  0
  -35.2407  -16.3106   -1.1617 C   0  0  0  0  0  0  0  0  0  0  0  0
  -33.9199  -15.9315   -1.4876 O   0  0  0  0  0  0  0  0  0  0  0  0
  -33.5136  -14.8751   -0.6405 C   0  0  0  0  0  0  0  0  0  0  0  0
  -33.5155  -15.3248    0.8303 C   0  0  0  0  0  0  0  0  0  0  0  0
  -35.5152  -14.9862    1.2295 H   0  0  0  0  0  0  0  0  0  0  0  0
  -37.3716  -13.9020    5.2935 C   0  0  0  0  0  0  0  0  0  0  0  0
  -36.2438  -14.5646    5.8115 C   0  0  0  0  0  0  0  0  0  0  0  0
  -35.4299  -15.3297    4.9720 C   0  0  0  0  0  0  0  0  0  0  0  0
  -35.7473  -15.4807    3.6064 C   0  0  0  0  0  0  0  0  0  0  0  0
  -36.8742  -14.8090    3.0985 C   0  0  0  0  0  0  0  0  0  0  0  0
  -37.6696  -14.0220    3.9327 C   0  0  0  0  0  0  0  0  0  0  0  0
  -38.0382  -11.7278    6.3329 C   0  0  0  0  0  0  0  0  0  0  0  0
  -38.2153  -13.1188    6.0931 O   0  0  0  0  0  0  0  0  0  0  0  0
 38 39  1  0  0  0
 39 32  1  0  0  0
 32 33  2  0  0  0
 33 34  1  0  0  0
 34 35  2  0  0  0
 35 36  1  0  0  0
 36 37  2  0  0  0
 35 24  1  0  0  0
 24 23  1  0  0  0
 23  1  1  0  0  0
  1  2  1  0  0  0
  2  3  2  0  0  0
  2  5  1  0  0  0
  5  6  2  0  0  0
  6  7  1  0  0  0
  7  8  2  0  0  0
  8 11  1  0  0  0
 11 12  1  0  0  0
 12 13  2  0  0  0
 12 14  2  0  0  0
 12 15  1  0  0  0
 15 16  2  0  0  0
 16 17  1  0  0  0
 17 18  2  0  0  0
 18 19  1  0  0  0
 18 20  1  0  0  0
 20 21  1  0  0  0
 20 22  2  0  0  0
  8  9  1  0  0  0
  9 10  2  0  0  0
 24 25  1  0  0  0
 25 26  1  0  0  0
 26 27  1  0  0  0
 27 28  1  0  0  0
 28 29  1  0  0  0
 29 30  1  0  0  0
 37 32  1  0  0  0
 10  5  1  0  0  0
 22 15  1  0  0  0
 30 25  1  0  0  0
  1  4  1  0  0  0
 25 31  1  0  0  0
M  CHG 1  11  -1
M  CHG 1  25   1
M  END
> <minimizedAffinity>
-8.09437

> <newdefault_CNNaffinity>
7.08078

> <newdefault_CNNscore>
0.817178

> <CNNaffinity_times_score>
5.7862577

> <protein>
2xwe

$$$$
