Pyridoxal Phosphate
     RDKit          3D

 16 16  0  0  0  0  0  0  0  0999 V2000
    1.7746   16.9605   70.0802 P   0  0  0  0  0  0  0  0  0  0  0  0
    2.8704   17.7185   69.1679 O   0  0  0  0  0  0  0  0  0  0  0  0
   -0.9316   18.2113   65.0962 O   0  0  0  0  0  0  0  0  0  0  0  0
    1.0929   18.1565   70.9266 O   0  0  0  0  0  0  0  0  0  0  0  0
    2.6769   16.1677   71.1578 O   0  0  0  0  0  0  0  0  0  0  0  0
   -0.5777   15.8958   66.2797 O   0  0  0  0  0  0  0  0  0  0  0  0
    0.8498   16.1141   69.2593 O   0  0  0  0  0  0  0  0  0  0  0  0
    2.2688   19.9074   65.4638 N   0  0  0  0  0  0  0  0  0  0  0  0
    2.2562   17.9628   66.8966 C   0  0  0  0  0  0  0  0  0  0  0  0
    0.9765   17.6428   66.4454 C   0  0  0  0  0  0  0  0  0  0  0  0
    3.0000   17.1361   67.8843 C   0  0  0  0  0  0  0  0  0  0  0  0
    0.3322   18.4727   65.5347 C   0  0  0  0  0  0  0  0  0  0  0  0
    1.0127   19.5885   65.0693 C   0  0  0  0  0  0  0  0  0  0  0  0
    2.8517   19.0971   66.3760 C   0  0  0  0  0  0  0  0  0  0  0  0
    0.3766   20.5032   64.0766 C   0  0  0  0  0  0  0  0  0  0  0  0
    0.3377   16.4047   66.9178 C   0  0  0  0  0  0  0  0  0  0  0  0
  1  2  1  0
  1  4  1  0
  1  5  1  0
  1  7  2  0
  2 11  1  0
  3 12  1  0
  6 16  2  0
  8 13  2  0
  8 14  1  0
  9 10  1  0
  9 11  1  0
  9 14  2  0
 10 12  2  0
 10 16  1  0
 12 13  1  0
 13 15  1  0
M  END
